formaldehyde
 OpenBabel07241711303D
CORINA evaluation license 3.49 0066  11.04.2013
  4  3  0  0  0  0  0  0  0  0999 V2000
    0.6072    0.0000   -0.0004 C   0  0  0  0  0
   -0.6004    0.0000    0.0001 O   0  0  0  0  0
    1.1472    0.9353    0.0016 H   0  0  0  0  0
    1.1472   -0.9353    0.0016 H   0  0  0  0  0
  1  2  2  0  0  0
  1  3  1  0  0  0
  1  4  1  0  0  0
M  END
>  <likely_enzyme_classes>
aldehyde dehydrogenase

>  <activity>
-9.8

>  <molID>
mol000123

>  <name>
formaldehyde

>  <reference>
Howard: Handbook of Environmental Degradation Rates

>  <speciation_state_pH7.4>
neutral

>  <substance_type>
chemical substance

>  <smiles>
C=O

>  <inchi>
InChI=1S/CH2O/c1-2/h1H2

>  <inchikey>
WSFSSNUMVMOOMR-UHFFFAOYSA-N

$$$$
