Trimethoprim
 OpenBabel07241711303D
CORINA evaluation license 3.49 0066  11.04.2013
 39 40  0  0  0  0  0  0  0  0999 V2000
    2.1844    3.6008    0.3710 C   0  0  0  0  0
    2.8173    2.3891   -0.0451 O   0  0  0  0  0
    2.1686    1.2266    0.2331 C   0  0  0  0  0
    0.9490    1.2528    0.8926 C   0  0  0  0  0
    0.2887    0.0719    1.1754 C   0  0  0  0  0
    0.8405   -1.1394    0.8025 C   0  0  0  0  0
    2.0597   -1.1742    0.1428 C   0  0  0  0  0
    2.7243    0.0112   -0.1481 C   0  0  0  0  0
    3.9210   -0.0187   -0.7955 O   0  0  0  0  0
    3.8877    0.0309   -2.2233 C   0  0  0  0  0
    2.6020   -2.3664   -0.2233 O   0  0  0  0  0
    1.8612   -3.5439    0.1038 C   0  0  0  0  0
   -1.0363    0.1050    1.8927 C   0  0  0  0  0
   -2.1518    0.1938    0.8834 C   0  0  0  0  0
   -2.6903    1.4158    0.5318 C   0  0  0  0  0
   -3.6705    1.4603   -0.3589 N   0  0  0  0  0
   -4.1376    0.3516   -0.9132 C   0  0  0  0  0
   -3.6486   -0.8399   -0.6033 N   0  0  0  0  0
   -2.6607   -0.9575    0.2780 C   0  0  0  0  0
   -2.1510   -2.2047    0.5999 N   0  0  0  0  0
   -5.1625    0.4402   -1.8390 N   0  0  0  0  0
    2.8055    4.4508    0.0883 H   0  0  0  0  0
    1.2106    3.6862   -0.1111 H   0  0  0  0  0
    2.0543    3.5898    1.4531 H   0  0  0  0  0
    0.5147    2.1971    1.1859 H   0  0  0  0  0
    0.3216   -2.0599    1.0257 H   0  0  0  0  0
    3.3276   -0.8234   -2.6035 H   0  0  0  0  0
    3.4044    0.9539   -2.5436 H   0  0  0  0  0
    4.9056    0.0000   -2.6118 H   0  0  0  0  0
    2.4043   -4.4229   -0.2434 H   0  0  0  0  0
    1.7290   -3.6016    1.1842 H   0  0  0  0  0
    0.8853   -3.5052   -0.3801 H   0  0  0  0  0
   -1.1524   -0.8036    2.4835 H   0  0  0  0  0
   -1.0716    0.9732    2.5507 H   0  0  0  0  0
   -2.3168    2.3256    0.9782 H   0  0  0  0  0
   -2.5150   -3.0003    0.1812 H   0  0  0  0  0
   -1.4299   -2.2825    1.2441 H   0  0  0  0  0
   -5.5297    1.3065   -2.0746 H   0  0  0  0  0
   -5.5136   -0.3641   -2.2523 H   0  0  0  0  0
  1  2  1  0  0  0
  1 22  1  0  0  0
  1 23  1  0  0  0
  1 24  1  0  0  0
  2  3  1  0  0  0
  3  4  2  0  0  0
  3  8  1  0  0  0
  4  5  1  0  0  0
  4 25  1  0  0  0
  5  6  2  0  0  0
  5 13  1  0  0  0
  6  7  1  0  0  0
  6 26  1  0  0  0
  7  8  2  0  0  0
  7 11  1  0  0  0
  8  9  1  0  0  0
  9 10  1  0  0  0
 10 27  1  0  0  0
 10 28  1  0  0  0
 10 29  1  0  0  0
 11 12  1  0  0  0
 12 30  1  0  0  0
 12 31  1  0  0  0
 12 32  1  0  0  0
 13 14  1  0  0  0
 13 33  1  0  0  0
 13 34  1  0  0  0
 14 15  2  0  0  0
 14 19  1  0  0  0
 15 16  1  0  0  0
 15 35  1  0  0  0
 16 17  2  0  0  0
 17 18  1  0  0  0
 17 21  1  0  0  0
 18 19  2  0  0  0
 19 20  1  0  0  0
 20 36  1  0  0  0
 20 37  1  0  0  0
 21 38  1  0  0  0
 21 39  1  0  0  0
M  END
>  <likely_enzyme_classes>
monooxygenase

>  <activity>
-11.8

>  <molID>
mol000200

>  <name>
Trimethoprim

>  <reference>
Baena-Nogueras et al. (2017)

>  <speciation_state_pH7.4>
cationic

>  <substance_type>
antibacterial drug

>  <smiles>
COc1cc(Cc2c[nH]c(=N)[nH]c2=N)cc(OC)c1OC

>  <inchi>
InChI=1S/C14H18N4O3/c1-19-10-5-8(6-11(20-2)12(10)21-3)4-9-7-17-14(16)18-13(9)15/h5-7H,4H2,1-3H3,(H4,15,16,17,18)

>  <inchikey>
IEDVJHCEMCRBQM-UHFFFAOYSA-N

$$$$
