acyclovir
 OpenBabel07241711303D
CORINA evaluation license 3.49 0066  11.04.2013
 27 28  0  0  0  0  0  0  0  0999 V2000
   -1.5973   -1.3393    0.0347 N   0  0  0  0  0
   -2.9099   -1.3175    0.0987 C   0  0  0  0  0
   -3.6120   -0.1492    0.0949 N   0  0  0  0  0
   -2.9654    1.0354    0.0246 C   0  0  0  0  0
   -3.5843    2.0858    0.0210 O   0  0  0  0  0
   -0.8894   -0.2060   -0.0370 C   0  0  0  0  0
   -1.5525    1.0264   -0.0443 C   0  0  0  0  0
    0.4465    0.0813   -0.1129 N   0  0  0  0  0
   -0.6052    1.9924   -0.1231 N   0  0  0  0  0
    1.5420   -0.8912   -0.1356 C   0  0  0  0  0
    0.5716    1.4394   -0.1636 C   0  0  0  0  0
    2.7902   -0.2007   -0.2203 O   0  0  0  0  0
    3.9301   -1.0620   -0.2489 C   0  0  0  0  0
    5.2039   -0.2193   -0.3399 C   0  0  0  0  0
    5.3470    0.5579    0.8508 O   0  0  0  0  0
   -3.5933   -2.5053    0.1710 N   0  0  0  0  0
   -4.5806   -0.1682    0.1426 H   0  0  0  0  0
    1.5177   -1.4872    0.7767 H   0  0  0  0  0
    1.4292   -1.5454   -1.0001 H   0  0  0  0  0
    1.5074    1.9748   -0.2277 H   0  0  0  0  0
    3.9554   -1.6615    0.6611 H   0  0  0  0  0
    3.8669   -1.7197   -1.1157 H   0  0  0  0  0
    6.0668   -0.8759   -0.4510 H   0  0  0  0  0
    5.1393    0.4449   -1.2017 H   0  0  0  0  0
    6.1352    1.1180    0.8625 H   0  0  0  0  0
   -3.1075   -3.3449    0.1743 H   0  0  0  0  0
   -4.5621   -2.5053    0.2187 H   0  0  0  0  0
  1  2  2  0  0  0
  1  6  1  0  0  0
  2  3  1  0  0  0
  2 16  1  0  0  0
  3  4  1  0  0  0
  3 17  1  0  0  0
  4  5  2  0  0  0
  4  7  1  0  0  0
  6  7  2  0  0  0
  6  8  1  0  0  0
  7  9  1  0  0  0
  8 10  1  0  0  0
  8 11  1  0  0  0
  9 11  2  0  0  0
 10 12  1  0  0  0
 10 18  1  0  0  0
 10 19  1  0  0  0
 11 20  1  0  0  0
 12 13  1  0  0  0
 13 14  1  0  0  0
 13 21  1  0  0  0
 13 22  1  0  0  0
 14 15  1  0  0  0
 14 23  1  0  0  0
 14 24  1  0  0  0
 15 25  1  0  0  0
 16 26  1  0  0  0
 16 27  1  0  0  0
M  END
>  <likely_enzyme_classes>
alcohol dehydrogenase; amine dehydrogenase; monooxygenase

>  <activity>
-9.9

>  <molID>
mol000127

>  <name>
acyclovir

>  <reference>
Prasse et al. (2015)

>  <speciation_state_pH7.4>
neutral

>  <substance_type>
antiviral drug

>  <smiles>
N=c1nc(O)c2ncn(COCCO)c2[nH]1

>  <inchi>
InChI=1S/C8H11N5O3/c9-8-11-6-5(7(15)12-8)10-3-13(6)4-16-2-1-14/h3,14H,1-2,4H2,(H3,9,11,12,15)

>  <inchikey>
MKUXAQIIEYXACX-UHFFFAOYSA-N

$$$$
