ethylene oxide
 OpenBabel07241711303D
CORINA evaluation license 3.49 0066  11.04.2013
  7  7  0  0  0  0  0  0  0  0999 V2000
    0.7650   -0.4128    0.0000 C   0  0  0  0  0
   -0.7650   -0.4128    0.0000 C   0  0  0  0  0
   -0.0000    0.7942   -0.0000 O   0  0  0  0  0
    1.2729   -0.6922    0.9231 H   0  0  0  0  0
    1.2729   -0.6922   -0.9231 H   0  0  0  0  0
   -1.2729   -0.6922   -0.9231 H   0  0  0  0  0
   -1.2729   -0.6922    0.9231 H   0  0  0  0  0
  1  2  1  0  0  0
  1  3  1  0  0  0
  1  4  1  0  0  0
  1  5  1  0  0  0
  2  3  1  0  0  0
  2  6  1  0  0  0
  2  7  1  0  0  0
M  END
>  <likely_enzyme_classes>
epoxide hydrolase

>  <activity>
-10.8

>  <molID>
mol000156

>  <name>
ethylene oxide

>  <reference>
Capel and Larson (1995)

>  <speciation_state_pH7.4>
neutral

>  <substance_type>
chemical substance

>  <smiles>
C1CO1

>  <inchi>
InChI=1S/C2H4O/c1-2-3-1/h1-2H2

>  <inchikey>
IAYPIBMASNFSPL-UHFFFAOYSA-N

$$$$
