2,4-dinitrotoluene
 OpenBabel07241711303D
CORINA evaluation license 3.49 0066  11.04.2013
 19 19  0  0  0  0  0  0  0  0999 V2000
    2.5408   -1.8537   -0.1114 C   0  0  0  0  0
    1.1555   -1.2619   -0.0694 C   0  0  0  0  0
    0.9913    0.1090   -0.0059 C   0  0  0  0  0
   -0.2796    0.6519    0.0326 C   0  0  0  0  0
   -1.3859   -0.1762    0.0072 C   0  0  0  0  0
   -1.2217   -1.5475   -0.0573 C   0  0  0  0  0
    0.0488   -2.0900   -0.1002 C   0  0  0  0  0
   -2.7466    0.4050    0.0494 N   0  0  0  0  0
   -2.8913    1.6130    0.1066 O   0  0  0  0  0
   -3.7215   -0.3247    0.0270 O   0  0  0  0  0
    2.1761    0.9958    0.0213 N   0  0  0  0  0
    3.1747    0.6594    0.6322 O   0  0  0  0  0
    2.1524    2.0620   -0.5672 O   0  0  0  0  0
    2.9256   -1.9501    0.9038 H   0  0  0  0  0
    2.5018   -2.8370   -0.5801 H   0  0  0  0  0
    3.1970   -1.2020   -0.6883 H   0  0  0  0  0
   -0.4080    1.7231    0.0829 H   0  0  0  0  0
   -2.0861   -2.1945   -0.0767 H   0  0  0  0  0
    0.1771   -3.1612   -0.1505 H   0  0  0  0  0
  1  2  1  0  0  0
  1 14  1  0  0  0
  1 15  1  0  0  0
  1 16  1  0  0  0
  2  3  2  0  0  0
  2  7  1  0  0  0
  3  4  1  0  0  0
  3 11  1  0  0  0
  4  5  2  0  0  0
  4 17  1  0  0  0
  5  6  1  0  0  0
  5  8  1  0  0  0
  6  7  2  0  0  0
  6 18  1  0  0  0
  7 19  1  0  0  0
  8  9  1  0  0  0
  8 10  2  0  0  0
 11 12  1  0  0  0
 11 13  2  0  0  0
M  CHG  4   8   1   9  -1  11   1  12  -1
M  END
>  <likely_enzyme_classes>
dioxygenase; nitroreductase

>  <activity>
-11.2

>  <molID>
mol000062

>  <name>
2,4-dinitrotoluene

>  <reference>
Howard: Handbook of Environmental Degradation Rates

>  <speciation_state_pH7.4>
neutral

>  <substance_type>
chemical substance

>  <smiles>
Cc1ccc([N+](=O)[O-])cc1[N+](=O)[O-]

>  <inchi>
InChI=1S/C7H6N2O4/c1-5-2-3-6(8(10)11)4-7(5)9(12)13/h2-4H,1H3

>  <inchikey>
RMBFBMJGBANMMK-UHFFFAOYSA-N

$$$$
