desethylatrazine
 OpenBabel07241711303D
CORINA evaluation license 3.49 0066  11.04.2013
 22 22  0  0  0  0  0  0  0  0999 V2000
    4.1013   -0.0701    0.7974 C   0  0  0  0  0
    2.7666    0.3303    0.1657 C   0  0  0  0  0
    3.0126    0.8814   -1.2402 C   0  0  0  0  0
    1.8933   -0.8431    0.0843 N   0  0  0  0  0
    0.5231   -0.6825    0.0508 C   0  0  0  0  0
   -0.0057    0.5378    0.0925 N   0  0  0  0  0
   -1.3193    0.6926    0.0600 C   0  0  0  0  0
   -2.0052    2.2864    0.1145 Cl  0  0  0  0  0
   -2.1111   -0.3645   -0.0144 N   0  0  0  0  0
   -1.5883   -1.5877   -0.0564 C   0  0  0  0  0
   -2.4150   -2.6899   -0.1340 N   0  0  0  0  0
   -0.2695   -1.7462   -0.0286 N   0  0  0  0  0
    4.7510    0.8030    0.8579 H   0  0  0  0  0
    3.9260   -0.4628    1.7990 H   0  0  0  0  0
    4.5778   -0.8358    0.1852 H   0  0  0  0  0
    2.2901    1.0960    0.7779 H   0  0  0  0  0
    3.6624    1.7545   -1.1796 H   0  0  0  0  0
    3.4891    0.1157   -1.8524 H   0  0  0  0  0
    2.0617    1.1667   -1.6902 H   0  0  0  0  0
    2.2782   -1.7330    0.0539 H   0  0  0  0  0
   -3.3777   -2.5734   -0.1580 H   0  0  0  0  0
   -2.0334   -3.5812   -0.1646 H   0  0  0  0  0
  1  2  1  0  0  0
  1 13  1  0  0  0
  1 14  1  0  0  0
  1 15  1  0  0  0
  2  3  1  0  0  0
  2  4  1  0  0  0
  2 16  1  0  0  0
  3 17  1  0  0  0
  3 18  1  0  0  0
  3 19  1  0  0  0
  4  5  1  0  0  0
  4 20  1  0  0  0
  5  6  2  0  0  0
  5 12  1  0  0  0
  6  7  1  0  0  0
  7  8  1  0  0  0
  7  9  2  0  0  0
  9 10  1  0  0  0
 10 11  1  0  0  0
 10 12  2  0  0  0
 11 21  1  0  0  0
 11 22  1  0  0  0
M  END
>  <likely_enzyme_classes>
dehalogenase; deaminase; amine dehydrogenase

>  <activity>
-12.2

>  <molID>
mol000107

>  <name>
desethylatrazine

>  <reference>
Papiernik and Spalding (1998); Cormier et al. (2015)

>  <speciation_state_pH7.4>
neutral

>  <substance_type>
herbicide transformation product

>  <smiles>
CC(C)N=c1[nH]c(Cl)nc(=N)[nH]1

>  <inchi>
InChI=1S/C6H10ClN5/c1-3(2)9-6-11-4(7)10-5(8)12-6/h3H,1-2H3,(H3,8,9,10,11,12)

>  <inchikey>
DFWFIQKMSFGDCQ-UHFFFAOYSA-N

$$$$
