2,4-D ethylester
 OpenBabel07241711303D
CORINA evaluation license 3.49 0066  11.04.2013
 25 25  0  0  0  0  0  0  0  0999 V2000
    6.5303   -1.2770    0.0010 C   0  0  0  0  0
    5.4319   -0.2120    0.0001 C   0  0  0  0  0
    4.1315   -0.8578    0.0009 O   0  0  0  0  0
    3.0537   -0.0578    0.0003 C   0  0  0  0  0
    3.1923    1.1425   -0.0010 O   0  0  0  0  0
    1.6708   -0.6566    0.0011 C   0  0  0  0  0
    0.6983    0.3905    0.0002 O   0  0  0  0  0
   -0.6092    0.0185    0.0007 C   0  0  0  0  0
   -1.6065    0.9839   -0.0001 C   0  0  0  0  0
   -1.1854    2.6681   -0.0018 Cl  0  0  0  0  0
   -2.9356    0.6030    0.0000 C   0  0  0  0  0
   -3.2711   -0.7392    0.0009 C   0  0  0  0  0
   -4.9406   -1.2152    0.0011 Cl  0  0  0  0  0
   -2.2779   -1.7027    0.0013 C   0  0  0  0  0
   -0.9486   -1.3263   -0.0036 C   0  0  0  0  0
    6.4336   -1.8979    0.8916 H   0  0  0  0  0
    6.4334   -1.8997   -0.8883 H   0  0  0  0  0
    7.5066   -0.7922    0.0003 H   0  0  0  0  0
    5.5289    0.4108    0.8894 H   0  0  0  0  0
    5.5286    0.4089   -0.8906 H   0  0  0  0  0
    1.5414   -1.2734   -0.8883 H   0  0  0  0  0
    1.5416   -1.2716    0.8917 H   0  0  0  0  0
   -3.7122    1.3535   -0.0003 H   0  0  0  0  0
   -2.5421   -2.7498    0.0017 H   0  0  0  0  0
   -0.1741   -2.0790   -0.0033 H   0  0  0  0  0
  1  2  1  0  0  0
  1 16  1  0  0  0
  1 17  1  0  0  0
  1 18  1  0  0  0
  2  3  1  0  0  0
  2 19  1  0  0  0
  2 20  1  0  0  0
  3  4  1  0  0  0
  4  5  2  0  0  0
  4  6  1  0  0  0
  6  7  1  0  0  0
  6 21  1  0  0  0
  6 22  1  0  0  0
  7  8  1  0  0  0
  8  9  2  0  0  0
  8 15  1  0  0  0
  9 10  1  0  0  0
  9 11  1  0  0  0
 11 12  2  0  0  0
 11 23  1  0  0  0
 12 13  1  0  0  0
 12 14  1  0  0  0
 14 15  2  0  0  0
 14 24  1  0  0  0
 15 25  1  0  0  0
M  END
>  <likely_enzyme_classes>
esterase

>  <activity>
-9.3

>  <molID>
mol000098

>  <name>
2,4-D ethylester

>  <reference>
Paris et al. (1984); Book chapter: Biodegradation analysis in water systems (14.3.2), from Environmental Xenobiotics by Richardson M.

>  <speciation_state_pH7.4>
neutral

>  <substance_type>
chemical substance

>  <smiles>
CCOC(=O)COc1ccc(Cl)cc1Cl

>  <inchi>
InChI=1S/C10H10Cl2O3/c1-2-14-10(13)6-15-9-4-3-7(11)5-8(9)12/h3-5H,2,6H2,1H3

>  <inchikey>
JSLBZIVMVVHMDJ-UHFFFAOYSA-N

$$$$
