ethyl carbamate
 OpenBabel07241711303D
CORINA evaluation license 3.49 0066  11.04.2013
 13 12  0  0  0  0  0  0  0  0999 V2000
    2.6815   -0.3134   -0.0002 C   0  0  0  0  0
    1.3534    0.4461   -0.0001 C   0  0  0  0  0
    0.2536   -0.5020   -0.0000 O   0  0  0  0  0
   -0.9926    0.0075    0.0001 C   0  0  0  0  0
   -2.0581   -0.8179    0.0002 N   0  0  0  0  0
   -1.1568    1.2115    0.0001 O   0  0  0  0  0
    3.5071    0.3983   -0.0002 H   0  0  0  0  0
    2.7419   -0.9398    0.8898 H   0  0  0  0  0
    2.7418   -0.9398   -0.8902 H   0  0  0  0  0
    1.2931    1.0726    0.8899 H   0  0  0  0  0
    1.2930    1.0725   -0.8901 H   0  0  0  0  0
   -1.9270   -1.7790    0.0002 H   0  0  0  0  0
   -2.9560   -0.4508    0.0002 H   0  0  0  0  0
  1  2  1  0  0  0
  1  7  1  0  0  0
  1  8  1  0  0  0
  1  9  1  0  0  0
  2  3  1  0  0  0
  2 10  1  0  0  0
  2 11  1  0  0  0
  3  4  1  0  0  0
  4  5  1  0  0  0
  4  6  2  0  0  0
  5 12  1  0  0  0
  5 13  1  0  0  0
M  END
>  <likely_enzyme_classes>
monooxygenase

>  <activity>
-9.8

>  <molID>
mol000014

>  <name>
ethyl carbamate

>  <reference>
Howard: Handbook of Environmental Degradation Rates

>  <speciation_state_pH7.4>
neutral

>  <substance_type>
chemical substance

>  <smiles>
CCOC(=N)O

>  <inchi>
InChI=1S/C3H7NO2/c1-2-6-3(4)5/h2H2,1H3,(H2,4,5)

>  <inchikey>
JOYRKODLDBILNP-UHFFFAOYSA-N

$$$$
