sulfamethazine
 OpenBabel07241711303D
CORINA evaluation license 3.49 0066  11.04.2013
 33 34  0  0  0  0  0  0  0  0999 V2000
    1.3583    2.6805    1.4671 C   0  0  0  0  0
    1.9031    1.5464    0.6376 C   0  0  0  0  0
    3.1755    1.6236    0.0935 C   0  0  0  0  0
    3.6385    0.5583   -0.6627 C   0  0  0  0  0
    5.0157    0.5981   -1.2734 C   0  0  0  0  0
    2.8572   -0.4939   -0.8416 N   0  0  0  0  0
    1.6454   -0.5362   -0.3075 C   0  0  0  0  0
    0.8543   -1.6528   -0.5148 N   0  0  0  0  0
   -0.4874   -1.9027    0.4232 S   0  0  0  0  0
   -1.0937   -3.0962   -0.0536 O   0  0  0  0  0
   -0.0734   -1.7261    1.7710 O   0  0  0  0  0
   -1.6179   -0.5969    0.0748 C   0  0  0  0  0
   -2.5497   -0.7425   -0.9365 C   0  0  0  0  0
   -3.4373    0.2790   -1.2122 C   0  0  0  0  0
   -3.3932    1.4538   -0.4723 C   0  0  0  0  0
   -4.2896    2.4888   -0.7482 N   0  0  0  0  0
   -2.4558    1.5969    0.5428 C   0  0  0  0  0
   -1.5750    0.5691    0.8170 C   0  0  0  0  0
    1.1748    0.4629    0.4246 N   0  0  0  0  0
    0.8384    3.3869    0.8199 H   0  0  0  0  0
    0.6627    2.2870    2.2083 H   0  0  0  0  0
    2.1797    3.1879    1.9730 H   0  0  0  0  0
    3.7927    2.4950    0.2550 H   0  0  0  0  0
    5.7360    0.1749   -0.5732 H   0  0  0  0  0
    5.0211    0.0172   -2.1957 H   0  0  0  0  0
    5.2861    1.6310   -1.4929 H   0  0  0  0  0
    1.0858   -2.2890   -1.2094 H   0  0  0  0  0
   -2.5832   -1.6561   -1.5116 H   0  0  0  0  0
   -4.1646    0.1647   -2.0024 H   0  0  0  0  0
   -4.9439    2.3877   -1.4571 H   0  0  0  0  0
   -4.2579    3.3087   -0.2309 H   0  0  0  0  0
   -2.4189    2.5090    1.1200 H   0  0  0  0  0
   -0.8462    0.6795    1.6064 H   0  0  0  0  0
  1  2  1  0  0  0
  1 20  1  0  0  0
  1 21  1  0  0  0
  1 22  1  0  0  0
  2  3  2  0  0  0
  2 19  1  0  0  0
  3  4  1  0  0  0
  3 23  1  0  0  0
  4  5  1  0  0  0
  4  6  2  0  0  0
  5 24  1  0  0  0
  5 25  1  0  0  0
  5 26  1  0  0  0
  6  7  1  0  0  0
  7  8  1  0  0  0
  7 19  2  0  0  0
  8  9  1  0  0  0
  8 27  1  0  0  0
  9 10  2  0  0  0
  9 11  2  0  0  0
  9 12  1  0  0  0
 12 13  2  0  0  0
 12 18  1  0  0  0
 13 14  1  0  0  0
 13 28  1  0  0  0
 14 15  2  0  0  0
 14 29  1  0  0  0
 15 16  1  0  0  0
 15 17  1  0  0  0
 16 30  1  0  0  0
 16 31  1  0  0  0
 17 18  2  0  0  0
 17 32  1  0  0  0
 18 33  1  0  0  0
M  END
>  <likely_enzyme_classes>
sulfanilamide hydrolase

>  <activity>
-11.8

>  <molID>
mol000192

>  <name>
sulfamethazine

>  <reference>
Lai et al. (2011); Baena-Nogueras et al. (2017)

>  <speciation_state_pH7.4>
anionic

>  <substance_type>
antibacterial drug

>  <smiles>
Cc1cc(C)nc(NS(=O)(=O)c2ccc(N)cc2)n1

>  <inchi>
InChI=1S/C12H14N4O2S/c1-8-7-9(2)15-12(14-8)16-19(17,18)11-5-3-10(13)4-6-11/h3-7H,13H2,1-2H3,(H,14,15,16)

>  <inchikey>
ASWVTGNCAZCNNR-UHFFFAOYSA-N

$$$$
