diethyl phthalate
 OpenBabel07241711303D
CORINA evaluation license 3.49 0066  11.04.2013
 30 30  0  0  0  0  0  0  0  0999 V2000
    4.5150    1.8193    0.9349 C   0  0  0  0  0
    3.3237    1.6938   -0.0169 C   0  0  0  0  0
    2.5852    0.4816    0.2891 O   0  0  0  0  0
    1.4988    0.2210   -0.4634 C   0  0  0  0  0
    1.1771    0.9853   -1.3508 O   0  0  0  0  0
    0.6980   -0.9955   -0.2091 C   0  0  0  0  0
    1.3083   -2.2466   -0.2006 C   0  0  0  0  0
    0.5552   -3.3814    0.0377 C   0  0  0  0  0
   -0.8052   -3.2834    0.2681 C   0  0  0  0  0
   -1.4287   -2.0493    0.2635 C   0  0  0  0  0
   -0.6857   -0.8951    0.0317 C   0  0  0  0  0
   -1.3476    0.4269    0.0262 C   0  0  0  0  0
   -0.6820    1.4388   -0.0631 O   0  0  0  0  0
   -2.6889    0.5090    0.1203 O   0  0  0  0  0
   -3.2703    1.8394    0.1086 C   0  0  0  0  0
   -4.7922    1.7320    0.2235 C   0  0  0  0  0
    4.1556    1.8625    1.9630 H   0  0  0  0  0
    5.1687    0.9554    0.8145 H   0  0  0  0  0
    5.0693    2.7292    0.7052 H   0  0  0  0  0
    2.6699    2.5577    0.1035 H   0  0  0  0  0
    3.6830    1.6506   -1.0451 H   0  0  0  0  0
    2.3699   -2.3308   -0.3804 H   0  0  0  0  0
    1.0320   -4.3505    0.0435 H   0  0  0  0  0
   -1.3840   -4.1764    0.4524 H   0  0  0  0  0
   -2.4913   -1.9804    0.4439 H   0  0  0  0  0
   -2.8820    2.4130    0.9503 H   0  0  0  0  0
   -3.0108    2.3412   -0.8236 H   0  0  0  0  0
   -5.2286    2.7307    0.2148 H   0  0  0  0  0
   -5.1805    1.1584   -0.6181 H   0  0  0  0  0
   -5.0516    1.2302    1.1557 H   0  0  0  0  0
  1  2  1  0  0  0
  1 17  1  0  0  0
  1 18  1  0  0  0
  1 19  1  0  0  0
  2  3  1  0  0  0
  2 20  1  0  0  0
  2 21  1  0  0  0
  3  4  1  0  0  0
  4  5  2  0  0  0
  4  6  1  0  0  0
  6  7  2  0  0  0
  6 11  1  0  0  0
  7  8  1  0  0  0
  7 22  1  0  0  0
  8  9  2  0  0  0
  8 23  1  0  0  0
  9 10  1  0  0  0
  9 24  1  0  0  0
 10 11  2  0  0  0
 10 25  1  0  0  0
 11 12  1  0  0  0
 12 13  2  0  0  0
 12 14  1  0  0  0
 14 15  1  0  0  0
 15 16  1  0  0  0
 15 26  1  0  0  0
 15 27  1  0  0  0
 16 28  1  0  0  0
 16 29  1  0  0  0
 16 30  1  0  0  0
M  END
>  <likely_enzyme_classes>
esterase

>  <activity>
-9.5

>  <molID>
mol000086

>  <name>
diethyl phthalate

>  <reference>
Mackay handbook of physical-chemical properties; Capel and Larson (1995)

>  <speciation_state_pH7.4>
neutral

>  <substance_type>
chemical substance

>  <smiles>
CCOC(=O)c1ccccc1C(=O)OCC

>  <inchi>
InChI=1S/C12H14O4/c1-3-15-11(13)9-7-5-6-8-10(9)12(14)16-4-2/h5-8H,3-4H2,1-2H3

>  <inchikey>
FLKPEMZONWLCSK-UHFFFAOYSA-N

$$$$
