isoproturon
 OpenBabel07241711303D
CORINA evaluation license 3.49 0066  11.04.2013
 33 33  0  0  0  0  0  0  0  0999 V2000
   -4.5499    0.4376    1.1803 C   0  0  0  0  0
   -4.0079   -0.1045   -0.1438 C   0  0  0  0  0
   -4.3297    0.8815   -1.2686 C   0  0  0  0  0
   -2.5147   -0.2797   -0.0414 C   0  0  0  0  0
   -1.9531   -1.5310   -0.2178 C   0  0  0  0  0
   -0.5848   -1.6948   -0.1249 C   0  0  0  0  0
    0.2271   -0.6012    0.1458 C   0  0  0  0  0
    1.6139   -0.7638    0.2401 N   0  0  0  0  0
    2.4309    0.2893    0.0400 C   0  0  0  0  0
    1.9671    1.4092   -0.0550 O   0  0  0  0  0
    3.7621    0.1009   -0.0547 N   0  0  0  0  0
    4.6632    1.2547   -0.1074 C   0  0  0  0  0
    4.3079   -1.2577   -0.1051 C   0  0  0  0  0
   -0.3400    0.6540    0.3224 C   0  0  0  0  0
   -1.7084    0.8121    0.2232 C   0  0  0  0  0
   -4.0852    1.3996    1.3965 H   0  0  0  0  0
   -5.6299    0.5643    1.1062 H   0  0  0  0  0
   -4.3206   -0.2649    1.9816 H   0  0  0  0  0
   -4.4726   -1.0665   -0.3600 H   0  0  0  0  0
   -3.8650    1.8435   -1.0524 H   0  0  0  0  0
   -3.9437    0.4953   -2.2119 H   0  0  0  0  0
   -5.4098    1.0083   -1.3427 H   0  0  0  0  0
   -2.5851   -2.3812   -0.4280 H   0  0  0  0  0
   -0.1469   -2.6724   -0.2624 H   0  0  0  0  0
    1.9870   -1.6343    0.4494 H   0  0  0  0  0
    4.9584    1.5317    0.9046 H   0  0  0  0  0
    5.5498    0.9972   -0.6868 H   0  0  0  0  0
    4.1519    2.0938   -0.5793 H   0  0  0  0  0
    3.5013   -1.9785    0.0294 H   0  0  0  0  0
    4.7848   -1.4221   -1.0713 H   0  0  0  0  0
    5.0436   -1.3833    0.6893 H   0  0  0  0  0
    0.2888    1.5064    0.5332 H   0  0  0  0  0
   -2.1500    1.7882    0.3600 H   0  0  0  0  0
  1  2  1  0  0  0
  1 16  1  0  0  0
  1 17  1  0  0  0
  1 18  1  0  0  0
  2  3  1  0  0  0
  2  4  1  0  0  0
  2 19  1  0  0  0
  3 20  1  0  0  0
  3 21  1  0  0  0
  3 22  1  0  0  0
  4  5  2  0  0  0
  4 15  1  0  0  0
  5  6  1  0  0  0
  5 23  1  0  0  0
  6  7  2  0  0  0
  6 24  1  0  0  0
  7  8  1  0  0  0
  7 14  1  0  0  0
  8  9  1  0  0  0
  8 25  1  0  0  0
  9 10  2  0  0  0
  9 11  1  0  0  0
 11 12  1  0  0  0
 11 13  1  0  0  0
 12 26  1  0  0  0
 12 27  1  0  0  0
 12 28  1  0  0  0
 13 29  1  0  0  0
 13 30  1  0  0  0
 13 31  1  0  0  0
 14 15  2  0  0  0
 14 32  1  0  0  0
 15 33  1  0  0  0
M  END
>  <likely_enzyme_classes>
demethylase; monooxygenase; amidohydrolase

>  <activity>
-10.8

>  <molID>
mol000025

>  <name>
isoproturon

>  <reference>
Merlin et al. (2002)

>  <speciation_state_pH7.4>
neutral

>  <substance_type>
herbicide

>  <smiles>
CC(C)c1ccc(NC(=O)N(C)C)cc1

>  <inchi>
InChI=1S/C12H18N2O/c1-9(2)10-5-7-11(8-6-10)13-12(15)14(3)4/h5-9H,1-4H3,(H,13,15)

>  <inchikey>
PUIYMUZLKQOUOZ-UHFFFAOYSA-N

$$$$
