4-chloro-o-cresol
 OpenBabel07241711303D
CORINA evaluation license 3.49 0066  11.04.2013
 16 16  0  0  0  0  0  0  0  0999 V2000
    2.0726    1.9491   -0.0095 C   0  0  0  0  0
    1.1245    0.7777   -0.0096 C   0  0  0  0  0
    1.6214   -0.5172   -0.0173 C   0  0  0  0  0
    2.9637   -0.7310   -0.0248 O   0  0  0  0  0
    0.7465   -1.5941   -0.0169 C   0  0  0  0  0
   -0.6171   -1.3748   -0.0088 C   0  0  0  0  0
   -1.1110   -0.0821   -0.0016 C   0  0  0  0  0
   -2.8253    0.1910    0.0085 Cl  0  0  0  0  0
   -0.2402    0.9929    0.0038 C   0  0  0  0  0
    2.2962    2.2357   -1.0371 H   0  0  0  0  0
    1.6120    2.7893    0.5100 H   0  0  0  0  0
    2.9955    1.6695    0.4987 H   0  0  0  0  0
    3.3565   -0.7965    0.8565 H   0  0  0  0  0
    1.1316   -2.6031   -0.0232 H   0  0  0  0  0
   -1.2985   -2.2128   -0.0085 H   0  0  0  0  0
   -0.6275    2.0011    0.0094 H   0  0  0  0  0
  1  2  1  0  0  0
  1 10  1  0  0  0
  1 11  1  0  0  0
  1 12  1  0  0  0
  2  3  2  0  0  0
  2  9  1  0  0  0
  3  4  1  0  0  0
  3  5  1  0  0  0
  4 13  1  0  0  0
  5  6  2  0  0  0
  5 14  1  0  0  0
  6  7  1  0  0  0
  6 15  1  0  0  0
  7  8  1  0  0  0
  7  9  2  0  0  0
  9 16  1  0  0  0
M  END
>  <likely_enzyme_classes>
monooxygenase; methyl hydroxylase; dehalogenase

>  <activity>
-10.5

>  <molID>
mol000054

>  <name>
4-chloro-o-cresol

>  <reference>
UNEP (1998)

>  <speciation_state_pH7.4>
neutral

>  <substance_type>
chemical substance

>  <smiles>
Cc1cc(Cl)ccc1O

>  <inchi>
InChI=1S/C7H7ClO/c1-5-4-6(8)2-3-7(5)9/h2-4,9H,1H3

>  <inchikey>
RHPUJHQBPORFGV-UHFFFAOYSA-N

$$$$
