fructose
 OpenBabel07241711303D
CORINA evaluation license 3.49 0066  11.04.2013
 24 24  0  0  0  0  0  0  0  0999 V2000
    3.2939   -0.4005    0.3689 O   0  0  0  0  0
    2.1796    0.3921    0.7839 C   0  0  0  0  0
    0.9599    0.0451   -0.0723 C   0  0  0  0  0
    1.2499    0.3132   -1.4456 O   0  0  0  0  0
    0.6444   -1.3396    0.0867 O   0  0  0  0  0
   -0.4697   -1.7774   -0.6938 C   0  0  0  0  0
   -1.7213   -1.0022   -0.2738 C   0  0  0  0  0
   -2.0179   -1.2802    1.0961 O   0  0  0  0  0
   -1.4656    0.4980   -0.4480 C   0  0  0  0  0
   -2.6020    1.2330    0.0107 O   0  0  0  0  0
   -0.2341    0.8937    0.3725 C   0  0  0  0  0
    0.0569    2.2766    0.1602 O   0  0  0  0  0
    4.1039   -0.2330    0.8697 H   0  0  0  0  0
    1.9582    0.1875    1.8314 H   0  0  0  0  0
    2.4199    1.4483    0.6628 H   0  0  0  0  0
    1.9969   -0.1913   -1.7956 H   0  0  0  0  0
   -0.2675   -1.5968   -1.7495 H   0  0  0  0  0
   -0.6308   -2.8432   -0.5316 H   0  0  0  0  0
   -2.5630   -1.3041   -0.8972 H   0  0  0  0  0
   -2.1863   -2.2145    1.2804 H   0  0  0  0  0
   -1.2898    0.7180   -1.5010 H   0  0  0  0  0
   -3.4204    1.0270   -0.4614 H   0  0  0  0  0
   -0.4306    0.7211    1.4306 H   0  0  0  0  0
   -0.6598    2.8731    0.4163 H   0  0  0  0  0
  1  2  1  0  0  0
  1 13  1  0  0  0
  2  3  1  0  0  0
  2 14  1  0  0  0
  2 15  1  0  0  0
  3  4  1  0  0  0
  3  5  1  0  0  0
  3 11  1  0  0  0
  4 16  1  0  0  0
  5  6  1  0  0  0
  6  7  1  0  0  0
  6 17  1  0  0  0
  6 18  1  0  0  0
  7  8  1  0  0  0
  7  9  1  0  0  0
  7 19  1  0  0  0
  8 20  1  0  0  0
  9 10  1  0  0  0
  9 11  1  0  0  0
  9 21  1  0  0  0
 10 22  1  0  0  0
 11 12  1  0  0  0
 11 23  1  0  0  0
 12 24  1  0  0  0
M  END
>  <likely_enzyme_classes>
isomerase

>  <activity>
-9.1

>  <molID>
mol000171

>  <name>
fructose

>  <reference>
Vervier et al. (2002)

>  <speciation_state_pH7.4>
neutral

>  <substance_type>
chemical substance

>  <smiles>
OCC1(O)OC[C@@H](O)[C@@H](O)[C@@H]1O

>  <inchi>
InChI=1S/C6H12O6/c7-2-6(11)5(10)4(9)3(8)1-12-6/h3-5,7-11H,1-2H2/t3-,4-,5+,6?/m1/s1

>  <inchikey>
LKDRXBCSQODPBY-VRPWFDPXSA-N

$$$$
