2,4-dimethylphenol
 OpenBabel07241711303D
CORINA evaluation license 3.49 0066  11.04.2013
 19 19  0  0  0  0  0  0  0  0999 V2000
    3.0692    0.4026   -0.0142 C   0  0  0  0  0
    1.6009    0.0634   -0.0029 C   0  0  0  0  0
    0.6590    1.0753   -0.0030 C   0  0  0  0  0
   -0.6878    0.7669    0.0079 C   0  0  0  0  0
   -1.7141    1.8704    0.0077 C   0  0  0  0  0
   -1.0944   -0.5592    0.0185 C   0  0  0  0  0
   -2.4185   -0.8651    0.0287 O   0  0  0  0  0
   -0.1470   -1.5730    0.0181 C   0  0  0  0  0
    1.1981   -1.2595    0.0020 C   0  0  0  0  0
    3.4298    0.4906    1.0106 H   0  0  0  0  0
    3.6203   -0.3858   -0.5268 H   0  0  0  0  0
    3.2196    1.3484   -0.5347 H   0  0  0  0  0
    0.9760    2.1076   -0.0112 H   0  0  0  0  0
   -1.9684    2.1300   -1.0199 H   0  0  0  0  0
   -2.6098    1.5336    0.5297 H   0  0  0  0  0
   -1.3065    2.7458    0.5134 H   0  0  0  0  0
   -2.8073   -0.9590   -0.8517 H   0  0  0  0  0
   -0.4611   -2.6063    0.0267 H   0  0  0  0  0
    1.9360   -2.0481    0.0013 H   0  0  0  0  0
  1  2  1  0  0  0
  1 10  1  0  0  0
  1 11  1  0  0  0
  1 12  1  0  0  0
  2  3  2  0  0  0
  2  9  1  0  0  0
  3  4  1  0  0  0
  3 13  1  0  0  0
  4  5  1  0  0  0
  4  6  2  0  0  0
  5 14  1  0  0  0
  5 15  1  0  0  0
  5 16  1  0  0  0
  6  7  1  0  0  0
  6  8  1  0  0  0
  7 17  1  0  0  0
  8  9  2  0  0  0
  8 18  1  0  0  0
  9 19  1  0  0  0
M  END
>  <likely_enzyme_classes>
monooxygenase; methyl hydroxylase

>  <activity>
-9.8

>  <molID>
mol000001

>  <name>
2,4-dimethylphenol

>  <reference>
Mackay handbook of physical-chemical properties

>  <speciation_state_pH7.4>
neutral

>  <substance_type>
chemical substance

>  <smiles>
Cc1ccc(O)c(C)c1

>  <inchi>
InChI=1S/C8H10O/c1-6-3-4-8(9)7(2)5-6/h3-5,9H,1-2H3

>  <inchikey>
KUFFULVDNCHOFZ-UHFFFAOYSA-N

$$$$
