benzene
 OpenBabel07241711303D
CORINA evaluation license 3.49 0066  11.04.2013
 12 12  0  0  0  0  0  0  0  0999 V2000
    0.6748   -1.2064   -0.0002 C   0  0  0  0  0
   -0.7074   -1.1876    0.0001 C   0  0  0  0  0
   -1.3822    0.0188   -0.0000 C   0  0  0  0  0
   -0.6748    1.2064    0.0000 C   0  0  0  0  0
    0.7074    1.1876    0.0006 C   0  0  0  0  0
    1.3822   -0.0188   -0.0007 C   0  0  0  0  0
    1.2020   -2.1490    0.0044 H   0  0  0  0  0
   -1.2601   -2.1155    0.0000 H   0  0  0  0  0
   -2.4621    0.0335   -0.0005 H   0  0  0  0  0
   -1.2020    2.1490   -0.0008 H   0  0  0  0  0
    1.2601    2.1155   -0.0001 H   0  0  0  0  0
    2.4621   -0.0335    0.0002 H   0  0  0  0  0
  1  2  2  0  0  0
  1  6  1  0  0  0
  1  7  1  0  0  0
  2  3  1  0  0  0
  2  8  1  0  0  0
  3  4  2  0  0  0
  3  9  1  0  0  0
  4  5  1  0  0  0
  4 10  1  0  0  0
  5  6  2  0  0  0
  5 11  1  0  0  0
  6 12  1  0  0  0
M  END
>  <likely_enzyme_classes>
dioxygenase

>  <activity>
-10.8

>  <molID>
mol000068

>  <name>
benzene

>  <reference>
Capel and Larson (1995); Vaishnav  and Babeu (1987); Aronson (1999)

>  <speciation_state_pH7.4>
neutral

>  <substance_type>
chemical substance

>  <smiles>
c1ccccc1

>  <inchi>
InChI=1S/C6H6/c1-2-4-6-5-3-1/h1-6H

>  <inchikey>
UHOVQNZJYSORNB-UHFFFAOYSA-N

$$$$
