levofloxacin
 OpenBabel07241711303D
CORINA evaluation license 3.49 0066  11.04.2013
 46 49  0  0  0  0  0  0  0  0999 V2000
   -1.4705    3.3279    1.2793 C   0  0  0  0  0
   -1.5607    2.7838   -0.1478 C   0  0  0  0  0
   -0.1959    2.9093   -0.8299 C   0  0  0  0  0
    0.7324    2.0478   -0.1601 O   0  0  0  0  0
    0.3706    0.7371   -0.0739 C   0  0  0  0  0
   -0.9787    0.3898   -0.0549 C   0  0  0  0  0
   -1.9560    1.3676   -0.1093 N   0  0  0  0  0
   -3.2647    1.0663   -0.1208 C   0  0  0  0  0
   -3.7303   -0.2292   -0.0569 C   0  0  0  0  0
   -5.1734   -0.5050   -0.0705 C   0  0  0  0  0
   -5.6172   -1.7764   -0.0075 O   0  0  0  0  0
   -5.9671    0.4132   -0.1387 O   0  0  0  0  0
   -2.7591   -1.3322    0.0248 C   0  0  0  0  0
   -3.1202   -2.4944    0.0931 O   0  0  0  0  0
   -1.3317   -0.9695    0.0205 C   0  0  0  0  0
   -0.3434   -1.9548    0.0911 C   0  0  0  0  0
    0.9853   -1.5946    0.0805 C   0  0  0  0  0
    1.9425   -2.5455    0.1508 F   0  0  0  0  0
    1.3450   -0.2485   -0.0033 C   0  0  0  0  0
    2.6946    0.1088   -0.0164 N   0  0  0  0  0
    3.3681   -0.4209   -1.2104 C   0  0  0  0  0
    4.8216    0.0581   -1.2277 C   0  0  0  0  0
    5.4973   -0.3913   -0.0024 N   0  0  0  0  0
    6.9173   -0.0153   -0.0163 C   0  0  0  0  0
    4.8238    0.1385    1.1915 C   0  0  0  0  0
    3.3703   -0.3405    1.2088 C   0  0  0  0  0
   -1.1742    4.3764    1.2503 H   0  0  0  0  0
   -2.4425    3.2383    1.7644 H   0  0  0  0  0
   -0.7306    2.7566    1.8399 H   0  0  0  0  0
   -2.3016    3.3538   -0.7085 H   0  0  0  0  0
   -0.2809    2.6130   -1.8754 H   0  0  0  0  0
    0.1511    3.9406   -0.7667 H   0  0  0  0  0
   -3.9814    1.8719   -0.1823 H   0  0  0  0  0
   -6.5751   -1.9081   -0.0195 H   0  0  0  0  0
   -0.6213   -2.9965    0.1543 H   0  0  0  0  0
    3.3444   -1.5104   -1.1879 H   0  0  0  0  0
    2.8570   -0.0641   -2.1046 H   0  0  0  0  0
    5.3310   -0.3573   -2.0971 H   0  0  0  0  0
    4.8452    1.1467   -1.2776 H   0  0  0  0  0
    7.0054    1.0688   -0.0865 H   0  0  0  0  0
    7.3933   -0.3599    0.9018 H   0  0  0  0  0
    7.4068   -0.4760   -0.8743 H   0  0  0  0  0
    5.3349   -0.2183    2.0857 H   0  0  0  0  0
    4.8475    1.2280    1.1690 H   0  0  0  0  0
    2.8609    0.0749    2.0782 H   0  0  0  0  0
    3.3467   -1.4291    1.2587 H   0  0  0  0  0
  1  2  1  0  0  0
  1 27  1  0  0  0
  1 28  1  0  0  0
  1 29  1  0  0  0
  2  3  1  0  0  0
  2  7  1  0  0  0
  2 30  1  0  0  0
  3  4  1  0  0  0
  3 31  1  0  0  0
  3 32  1  0  0  0
  4  5  1  0  0  0
  5  6  2  0  0  0
  5 19  1  0  0  0
  6  7  1  0  0  0
  6 15  1  0  0  0
  7  8  1  0  0  0
  8  9  2  0  0  0
  8 33  1  0  0  0
  9 10  1  0  0  0
  9 13  1  0  0  0
 10 11  1  0  0  0
 10 12  2  0  0  0
 11 34  1  0  0  0
 13 14  2  0  0  0
 13 15  1  0  0  0
 15 16  2  0  0  0
 16 17  1  0  0  0
 16 35  1  0  0  0
 17 18  1  0  0  0
 17 19  2  0  0  0
 19 20  1  0  0  0
 20 21  1  0  0  0
 20 26  1  0  0  0
 21 22  1  0  0  0
 21 36  1  0  0  0
 21 37  1  0  0  0
 22 23  1  0  0  0
 22 38  1  0  0  0
 22 39  1  0  0  0
 23 24  1  0  0  0
 23 25  1  0  0  0
 24 40  1  0  0  0
 24 41  1  0  0  0
 24 42  1  0  0  0
 25 26  1  0  0  0
 25 43  1  0  0  0
 25 44  1  0  0  0
 26 45  1  0  0  0
 26 46  1  0  0  0
M  END
>  <likely_enzyme_classes>
amine dehydrogenase; demethylase; monooxygenase; hydrolase

>  <activity>
-11.9

>  <molID>
mol000193

>  <name>
levofloxacin

>  <reference>
Lam et al. (2004)

>  <speciation_state_pH7.4>
anionic

>  <substance_type>
antibacterial drug

>  <smiles>
C[C@H]1COc2c(N3CCN(C)CC3)c(F)cc3c(=O)c(C(=O)O)cn1c32

>  <inchi>
InChI=1S/C18H20FN3O4/c1-10-9-26-17-14-11(16(23)12(18(24)25)8-22(10)14)7-13(19)15(17)21-5-3-20(2)4-6-21/h7-8,10H,3-6,9H2,1-2H3,(H,24,25)/t10-/m0/s1

>  <inchikey>
GSDSWSVVBLHKDQ-JTQLQIEISA-N

$$$$
