methyl methacrylate
 OpenBabel07241711303D
CORINA evaluation license 3.49 0066  11.04.2013
 15 14  0  0  0  0  0  0  0  0999 V2000
    2.5443   -0.3121   -0.0000 C   0  0  0  0  0
    1.1483   -0.7116   -0.0000 O   0  0  0  0  0
    0.2296    0.2748   -0.0000 C   0  0  0  0  0
    0.5856    1.4368    0.0000 O   0  0  0  0  0
   -1.2025   -0.0550   -0.0000 C   0  0  0  0  0
   -1.6439   -1.4959   -0.0000 C   0  0  0  0  0
   -2.1095    0.9189   -0.0000 C   0  0  0  0  0
    2.7523    0.2818    0.8900 H   0  0  0  0  0
    3.1763   -1.2002    0.0000 H   0  0  0  0  0
    2.7523    0.2818   -0.8900 H   0  0  0  0  0
   -1.2590   -1.9938    0.8900 H   0  0  0  0  0
   -2.7329   -1.5422    0.0000 H   0  0  0  0  0
   -1.2590   -1.9938   -0.8900 H   0  0  0  0  0
   -3.1620    0.6765    0.0000 H   0  0  0  0  0
   -1.7932    1.9515   -0.0000 H   0  0  0  0  0
  1  2  1  0  0  0
  1  8  1  0  0  0
  1  9  1  0  0  0
  1 10  1  0  0  0
  2  3  1  0  0  0
  3  4  2  0  0  0
  3  5  1  0  0  0
  5  6  1  0  0  0
  5  7  2  0  0  0
  6 11  1  0  0  0
  6 12  1  0  0  0
  6 13  1  0  0  0
  7 14  1  0  0  0
  7 15  1  0  0  0
M  END
>  <likely_enzyme_classes>
esterase; alkene monooxygenase; hydrolase

>  <activity>
-10.5

>  <molID>
mol000093

>  <name>
methyl methacrylate

>  <reference>
Mackay handbook of physical-chemical properties

>  <speciation_state_pH7.4>
neutral

>  <substance_type>
chemical substance

>  <smiles>
C=C(C)C(=O)OC

>  <inchi>
InChI=1S/C5H8O2/c1-4(2)5(6)7-3/h1H2,2-3H3

>  <inchikey>
VVQNEPGJFQJSBK-UHFFFAOYSA-N

$$$$
