2,3,4,6-tetrachlorophenol
 OpenBabel07241711303D
CORINA evaluation license 3.49 0066  11.04.2013
 13 13  0  0  0  0  0  0  0  0999 V2000
   -2.2274    1.7236    0.0108 O   0  0  0  0  0
   -1.2822    0.7462    0.0065 C   0  0  0  0  0
    0.0640    1.0817    0.0055 C   0  0  0  0  0
    0.5436    2.7502    0.0104 Cl  0  0  0  0  0
    1.0242    0.0852    0.0011 C   0  0  0  0  0
    2.7090    0.5036    0.0005 Cl  0  0  0  0  0
    0.6417   -1.2453   -0.0023 C   0  0  0  0  0
    1.8477   -2.4940   -0.0079 Cl  0  0  0  0  0
   -0.7006   -1.5812   -0.0009 C   0  0  0  0  0
   -1.6628   -0.5887    0.0088 C   0  0  0  0  0
   -3.3465   -1.0115    0.0106 Cl  0  0  0  0  0
   -2.5021    2.0090   -0.8713 H   0  0  0  0  0
   -0.9968   -2.6198   -0.0032 H   0  0  0  0  0
  1  2  1  0  0  0
  1 12  1  0  0  0
  2  3  2  0  0  0
  2 10  1  0  0  0
  3  4  1  0  0  0
  3  5  1  0  0  0
  5  6  1  0  0  0
  5  7  2  0  0  0
  7  8  1  0  0  0
  7  9  1  0  0  0
  9 10  2  0  0  0
  9 13  1  0  0  0
 10 11  1  0  0  0
M  END
>  <likely_enzyme_classes>
dehalogenase

>  <activity>
-11.8

>  <molID>
mol000117

>  <name>
2,3,4,6-tetrachlorophenol

>  <reference>
Mackay handbook of physical-chemical properties

>  <speciation_state_pH7.4>
anionic

>  <substance_type>
chemical substance

>  <smiles>
Oc1c(Cl)cc(Cl)c(Cl)c1Cl

>  <inchi>
InChI=1S/C6H2Cl4O/c7-2-1-3(8)6(11)5(10)4(2)9/h1,11H

>  <inchikey>
VGVRPFIJEJYOFN-UHFFFAOYSA-N

$$$$
