diethylene glycol dinitrate
 OpenBabel07241711303D
CORINA evaluation license 3.49 0066  11.04.2013
 21 20  0  0  0  0  0  0  0  0999 V2000
    4.2535   -0.8641    0.9540 O   0  0  0  0  0
    3.7697   -0.7801   -0.1606 N   0  0  0  0  0
    4.2015   -1.4715   -1.0656 O   0  0  0  0  0
    2.7013    0.1170   -0.4029 O   0  0  0  0  0
    2.2929    0.8589    0.7482 C   0  0  0  0  0
    1.1394    1.7907    0.3715 C   0  0  0  0  0
    0.0002    1.0123   -0.0003 O   0  0  0  0  0
   -1.1392    1.7903   -0.3723 C   0  0  0  0  0
   -2.2926    0.8581   -0.7487 C   0  0  0  0  0
   -2.7008    0.1166    0.4026 O   0  0  0  0  0
   -3.7690   -0.7809    0.1607 N   0  0  0  0  0
   -4.2528   -0.8654   -0.9539 O   0  0  0  0  0
   -4.2039   -1.4684    1.0671 O   0  0  0  0  0
    1.9644    0.1702    1.5265 H   0  0  0  0  0
    3.1318    1.4496    1.1161 H   0  0  0  0  0
    0.8868    2.4197    1.2251 H   0  0  0  0  0
    1.4391    2.4194   -0.4670 H   0  0  0  0  0
   -1.4391    2.4193    0.4659 H   0  0  0  0  0
   -0.8868    2.4190   -1.2262 H   0  0  0  0  0
   -3.1316    1.4485   -1.1169 H   0  0  0  0  0
   -1.9639    0.1692   -1.5268 H   0  0  0  0  0
  1  2  1  0  0  0
  2  3  2  0  0  0
  2  4  1  0  0  0
  4  5  1  0  0  0
  5  6  1  0  0  0
  5 14  1  0  0  0
  5 15  1  0  0  0
  6  7  1  0  0  0
  6 16  1  0  0  0
  6 17  1  0  0  0
  7  8  1  0  0  0
  8  9  1  0  0  0
  8 18  1  0  0  0
  8 19  1  0  0  0
  9 10  1  0  0  0
  9 20  1  0  0  0
  9 21  1  0  0  0
 10 11  1  0  0  0
 11 12  1  0  0  0
 11 13  2  0  0  0
M  CHG  4   1  -1   2   1  11   1  12  -1
M  END
>  <likely_enzyme_classes>
monooxygenase; nitroreductase

>  <activity>
-12.2

>  <molID>
mol000163

>  <name>
diethylene glycol dinitrate

>  <reference>
Haag et al. (1991)

>  <speciation_state_pH7.4>
neutral

>  <substance_type>
chemical substance

>  <smiles>
O=[N+]([O-])OCCOCCO[N+](=O)[O-]

>  <inchi>
InChI=1S/C4H8N2O7/c7-5(8)12-3-1-11-2-4-13-6(9)10/h1-4H2

>  <inchikey>
LYAGTVMJGHTIDH-UHFFFAOYSA-N

$$$$
