Flumequine
 OpenBabel07241711303D
CORINA evaluation license 3.49 0066  11.04.2013
 31 33  0  0  0  0  0  0  0  0999 V2000
    0.9131    3.5818   -0.3228 C   0  0  0  0  0
   -0.1904    2.7216    0.2961 C   0  0  0  0  0
   -1.5092    2.9861   -0.4309 C   0  0  0  0  0
   -2.5955    2.1095    0.2001 C   0  0  0  0  0
   -2.1631    0.6668    0.1157 C   0  0  0  0  0
   -0.8114    0.3328    0.1014 C   0  0  0  0  0
    0.1696    1.3019    0.1728 N   0  0  0  0  0
    1.4798    0.9971    0.1382 C   0  0  0  0  0
    1.9461   -0.2950    0.0474 C   0  0  0  0  0
    0.9712   -1.3946   -0.0173 C   0  0  0  0  0
    1.3272   -2.5576   -0.0908 O   0  0  0  0  0
   -0.4570   -1.0262    0.0118 C   0  0  0  0  0
   -1.4398   -2.0144   -0.0492 C   0  0  0  0  0
   -2.7712   -1.6575   -0.0253 C   0  0  0  0  0
   -3.1262   -0.3177    0.0541 C   0  0  0  0  0
   -3.7284   -2.6092   -0.0827 F   0  0  0  0  0
    3.3895   -0.5704    0.0151 C   0  0  0  0  0
    4.1847    0.3475    0.0688 O   0  0  0  0  0
    3.8315   -1.8408   -0.0741 O   0  0  0  0  0
    0.5928    4.6234   -0.3444 H   0  0  0  0  0
    1.8208    3.4931    0.2741 H   0  0  0  0  0
    1.1120    3.2417   -1.3391 H   0  0  0  0  0
   -0.3003    2.9764    1.3502 H   0  0  0  0  0
   -1.7803    4.0367   -0.3273 H   0  0  0  0  0
   -1.4027    2.7345   -1.4861 H   0  0  0  0  0
   -2.7306    2.3901    1.2447 H   0  0  0  0  0
   -3.5325    2.2425   -0.3406 H   0  0  0  0  0
    2.1979    1.8025    0.1834 H   0  0  0  0  0
   -1.1586   -3.0551   -0.1153 H   0  0  0  0  0
   -4.1706   -0.0432    0.0711 H   0  0  0  0  0
    4.7894   -1.9721   -0.0920 H   0  0  0  0  0
  1  2  1  0  0  0
  1 20  1  0  0  0
  1 21  1  0  0  0
  1 22  1  0  0  0
  2  3  1  0  0  0
  2  7  1  0  0  0
  2 23  1  0  0  0
  3  4  1  0  0  0
  3 24  1  0  0  0
  3 25  1  0  0  0
  4  5  1  0  0  0
  4 26  1  0  0  0
  4 27  1  0  0  0
  5  6  2  0  0  0
  5 15  1  0  0  0
  6  7  1  0  0  0
  6 12  1  0  0  0
  7  8  1  0  0  0
  8  9  2  0  0  0
  8 28  1  0  0  0
  9 10  1  0  0  0
  9 17  1  0  0  0
 10 11  2  0  0  0
 10 12  1  0  0  0
 12 13  2  0  0  0
 13 14  1  0  0  0
 13 29  1  0  0  0
 14 15  2  0  0  0
 14 16  1  0  0  0
 15 30  1  0  0  0
 17 18  2  0  0  0
 17 19  1  0  0  0
 19 31  1  0  0  0
M  END
>  <likely_enzyme_classes>
amine dehydrogenase

>  <activity>
-11.2

>  <molID>
mol000195

>  <name>
Flumequine

>  <reference>
Baena-Nogueras et al. (2017)

>  <speciation_state_pH7.4>
anionic

>  <substance_type>
antibacterial drug

>  <smiles>
CC1CCc2cc(F)cc3c(=O)c(C(=O)O)cn1c23

>  <inchi>
InChI=1S/C14H12FNO3/c1-7-2-3-8-4-9(15)5-10-12(8)16(7)6-11(13(10)17)14(18)19/h4-7H,2-3H2,1H3,(H,18,19)

>  <inchikey>
DPSPPJIUMHPXMA-UHFFFAOYSA-N

$$$$
