benzanilide
 OpenBabel07241711303D
CORINA evaluation license 3.49 0066  11.04.2013
 26 27  0  0  0  0  0  0  0  0999 V2000
   -0.0028   -1.5245    0.2578 O   0  0  0  0  0
   -0.4082   -0.4016    0.0286 C   0  0  0  0  0
    0.4666    0.5931   -0.2196 N   0  0  0  0  0
    1.8412    0.3569   -0.1184 C   0  0  0  0  0
    2.3642   -0.8767   -0.4842 C   0  0  0  0  0
    3.7223   -1.1066   -0.3835 C   0  0  0  0  0
    4.5612   -0.1102    0.0809 C   0  0  0  0  0
    4.0436    1.1190    0.4464 C   0  0  0  0  0
    2.6872    1.3573    0.3427 C   0  0  0  0  0
   -1.8609   -0.1286    0.0162 C   0  0  0  0  0
   -2.7698   -1.1579    0.2672 C   0  0  0  0  0
   -4.1242   -0.8963    0.2540 C   0  0  0  0  0
   -4.5824    0.3829   -0.0073 C   0  0  0  0  0
   -3.6868    1.4076   -0.2569 C   0  0  0  0  0
   -2.3296    1.1608   -0.2410 C   0  0  0  0  0
    0.1427    1.4729   -0.4685 H   0  0  0  0  0
    1.7095   -1.6554   -0.8467 H   0  0  0  0  0
    4.1295   -2.0657   -0.6675 H   0  0  0  0  0
    5.6228   -0.2925    0.1588 H   0  0  0  0  0
    4.7014    1.8949    0.8091 H   0  0  0  0  0
    2.2836    2.3175    0.6283 H   0  0  0  0  0
   -2.4135   -2.1568    0.4709 H   0  0  0  0  0
   -4.8286   -1.6918    0.4477 H   0  0  0  0  0
   -5.6438    0.5823   -0.0167 H   0  0  0  0  0
   -4.0510    2.4038   -0.4601 H   0  0  0  0  0
   -1.6316    1.9616   -0.4360 H   0  0  0  0  0
  1  2  2  0  0  0
  2  3  1  0  0  0
  2 10  1  0  0  0
  3  4  1  0  0  0
  3 16  1  0  0  0
  4  5  2  0  0  0
  4  9  1  0  0  0
  5  6  1  0  0  0
  5 17  1  0  0  0
  6  7  2  0  0  0
  6 18  1  0  0  0
  7  8  1  0  0  0
  7 19  1  0  0  0
  8  9  2  0  0  0
  8 20  1  0  0  0
  9 21  1  0  0  0
 10 11  2  0  0  0
 10 15  1  0  0  0
 11 12  1  0  0  0
 11 22  1  0  0  0
 12 13  2  0  0  0
 12 23  1  0  0  0
 13 14  1  0  0  0
 13 24  1  0  0  0
 14 15  2  0  0  0
 14 25  1  0  0  0
 15 26  1  0  0  0
M  END
>  <likely_enzyme_classes>
dioxygenase; amidohydrolase

>  <activity>
-11.5

>  <molID>
mol000067

>  <name>
benzanilide

>  <reference>
Steen and Collete (1989); Book chapter: Biodegradation analysis in water systems (14.3.2), from Environmental Xenobiotics by Richardson M.

>  <speciation_state_pH7.4>
neutral

>  <substance_type>
chemical substance

>  <smiles>
OC(=Nc1ccccc1)c1ccccc1

>  <inchi>
InChI=1S/C13H11NO/c15-13(11-7-3-1-4-8-11)14-12-9-5-2-6-10-12/h1-10H,(H,14,15)

>  <inchikey>
ZVSKZLHKADLHSD-UHFFFAOYSA-N

$$$$
