sulfamethoxazole
 OpenBabel07241711303D
CORINA evaluation license 3.49 0066  11.04.2013
 28 29  0  0  0  0  0  0  0  0999 V2000
    4.6022    2.1609   -0.4871 C   0  0  0  0  0
    3.4228    1.2550   -0.2432 C   0  0  0  0  0
    3.0474    0.1969   -0.9967 C   0  0  0  0  0
    1.8917   -0.3010   -0.3368 C   0  0  0  0  0
    1.1193   -1.3939   -0.7158 N   0  0  0  0  0
   -0.2012   -1.8268    0.1850 S   0  0  0  0  0
   -0.7876   -2.9416   -0.4728 O   0  0  0  0  0
    0.2303   -1.8617    1.5384 O   0  0  0  0  0
   -1.3666   -0.5105    0.0681 C   0  0  0  0  0
   -2.3110   -0.5129   -0.9421 C   0  0  0  0  0
   -3.2259    0.5172   -1.0366 C   0  0  0  0  0
   -3.1968    1.5566   -0.1155 C   0  0  0  0  0
   -4.1209    2.5999   -0.2079 N   0  0  0  0  0
   -2.2468    1.5560    0.8979 C   0  0  0  0  0
   -1.3384    0.5198    0.9900 C   0  0  0  0  0
    1.7006    0.4745    0.6988 N   0  0  0  0  0
    2.5446    1.3376    0.7668 O   0  0  0  0  0
    4.2949    2.9958   -1.1169 H   0  0  0  0  0
    4.9716    2.5409    0.4654 H   0  0  0  0  0
    5.3931    1.6011   -0.9864 H   0  0  0  0  0
    3.5169   -0.1816   -1.8926 H   0  0  0  0  0
    1.3540   -1.9025   -1.5077 H   0  0  0  0  0
   -2.3329   -1.3212   -1.6581 H   0  0  0  0  0
   -3.9630    0.5149   -1.8260 H   0  0  0  0  0
   -4.7840    2.5991   -0.9159 H   0  0  0  0  0
   -4.0996    3.3251    0.4358 H   0  0  0  0  0
   -2.2214    2.3625    1.6157 H   0  0  0  0  0
   -0.5997    0.5184    1.7779 H   0  0  0  0  0
  1  2  1  0  0  0
  1 18  1  0  0  0
  1 19  1  0  0  0
  1 20  1  0  0  0
  2  3  2  0  0  0
  2 17  1  0  0  0
  3  4  1  0  0  0
  3 21  1  0  0  0
  4  5  1  0  0  0
  4 16  2  0  0  0
  5  6  1  0  0  0
  5 22  1  0  0  0
  6  7  2  0  0  0
  6  8  2  0  0  0
  6  9  1  0  0  0
  9 10  2  0  0  0
  9 15  1  0  0  0
 10 11  1  0  0  0
 10 23  1  0  0  0
 11 12  2  0  0  0
 11 24  1  0  0  0
 12 13  1  0  0  0
 12 14  1  0  0  0
 13 25  1  0  0  0
 13 26  1  0  0  0
 14 15  2  0  0  0
 14 27  1  0  0  0
 15 28  1  0  0  0
 16 17  1  0  0  0
M  END
>  <likely_enzyme_classes>
sulfanilamide hydrolase

>  <activity>
-11.9

>  <molID>
mol000189

>  <name>
sulfamethoxazole

>  <reference>
Lam et al. (2004); Cormier et al. (2015); Lai et al. (2011); Baena-Nogueras et al. (2017)

>  <speciation_state_pH7.4>
anionic

>  <substance_type>
antibacterial drug

>  <smiles>
Cc1cc(NS(=O)(=O)c2ccc(N)cc2)no1

>  <inchi>
InChI=1S/C10H11N3O3S/c1-7-6-10(12-16-7)13-17(14,15)9-4-2-8(11)3-5-9/h2-6H,11H2,1H3,(H,12,13)

>  <inchikey>
JLKIGFTWXXRPMT-UHFFFAOYSA-N

$$$$
