irgarol 1051
 OpenBabel07241711303D
CORINA evaluation license 3.49 0066  11.04.2013
 36 37  0  0  0  0  0  0  0  0999 V2000
    1.8979    3.2116    0.0162 C   0  0  0  0  0
    0.1111    2.9233   -0.0033 S   0  0  0  0  0
    0.0854    1.1615    0.0106 C   0  0  0  0  0
    1.2271    0.4798    0.0301 N   0  0  0  0  0
    1.2074   -0.8493    0.0410 C   0  0  0  0  0
    2.3922   -1.5569    0.0613 N   0  0  0  0  0
    3.6715   -0.8431    0.0707 C   0  0  0  0  0
    4.8807   -1.5682    0.6649 C   0  0  0  0  0
    4.7783   -1.3647   -0.8480 C   0  0  0  0  0
    0.0465   -1.4970    0.0330 N   0  0  0  0  0
   -1.0952   -0.8157    0.0135 C   0  0  0  0  0
   -2.3002   -1.4886    0.0051 N   0  0  0  0  0
   -3.5581   -0.7380   -0.0164 C   0  0  0  0  0
   -3.6117    0.1317   -1.2740 C   0  0  0  0  0
   -4.7352   -1.7154   -0.0217 C   0  0  0  0  0
   -3.6412    0.1536    1.2242 C   0  0  0  0  0
   -1.0761    0.5131    0.0072 N   0  0  0  0  0
    2.0929    4.2840    0.0099 H   0  0  0  0  0
    2.3275    2.7695    0.9151 H   0  0  0  0  0
    2.3493    2.7551   -0.8647 H   0  0  0  0  0
    2.3779   -2.5267    0.0693 H   0  0  0  0  0
    3.6075    0.2347    0.2202 H   0  0  0  0  0
    5.6123   -0.9673    1.2052 H   0  0  0  0  0
    4.7243   -2.5762    1.0489 H   0  0  0  0  0
    4.5545   -2.2390   -1.4594 H   0  0  0  0  0
    5.4425   -0.6301   -1.3031 H   0  0  0  0  0
   -2.3142   -2.4584    0.0134 H   0  0  0  0  0
   -3.5524   -0.5035   -2.1578 H   0  0  0  0  0
   -4.5476    0.6902   -1.2900 H   0  0  0  0  0
   -2.7731    0.8281   -1.2701 H   0  0  0  0  0
   -4.6971   -2.3350    0.8742 H   0  0  0  0  0
   -5.6711   -1.1569   -0.0377 H   0  0  0  0  0
   -4.6760   -2.3506   -0.9055 H   0  0  0  0  0
   -2.8027    0.8499    1.2281 H   0  0  0  0  0
   -4.5772    0.7121    1.2083 H   0  0  0  0  0
   -3.6031   -0.4660    2.1202 H   0  0  0  0  0
  1  2  1  0  0  0
  1 18  1  0  0  0
  1 19  1  0  0  0
  1 20  1  0  0  0
  2  3  1  0  0  0
  3  4  2  0  0  0
  3 17  1  0  0  0
  4  5  1  0  0  0
  5  6  1  0  0  0
  5 10  2  0  0  0
  6  7  1  0  0  0
  6 21  1  0  0  0
  7  8  1  0  0  0
  7  9  1  0  0  0
  7 22  1  0  0  0
  8  9  1  0  0  0
  8 23  1  0  0  0
  8 24  1  0  0  0
  9 25  1  0  0  0
  9 26  1  0  0  0
 10 11  1  0  0  0
 11 12  1  0  0  0
 11 17  2  0  0  0
 12 13  1  0  0  0
 12 27  1  0  0  0
 13 14  1  0  0  0
 13 15  1  0  0  0
 13 16  1  0  0  0
 14 28  1  0  0  0
 14 29  1  0  0  0
 14 30  1  0  0  0
 15 31  1  0  0  0
 15 32  1  0  0  0
 15 33  1  0  0  0
 16 34  1  0  0  0
 16 35  1  0  0  0
 16 36  1  0  0  0
M  END
>  <likely_enzyme_classes>
hydrolase?; amine dehydrogenase

>  <activity>
-12.4

>  <molID>
mol000161

>  <name>
irgarol 1051

>  <reference>
Kaonga et al. (2016)

>  <speciation_state_pH7.4>
neutral

>  <substance_type>
biocide

>  <smiles>
CSc1nc(=NC2CC2)nc(NC(C)(C)C)[nH]1

>  <inchi>
InChI=1S/C11H19N5S/c1-11(2,3)16-9-13-8(12-7-5-6-7)14-10(15-9)17-4/h7H,5-6H2,1-4H3,(H2,12,13,14,15,16)

>  <inchikey>
HDHLIWCXDDZUFH-UHFFFAOYSA-N

$$$$
