Indomethacin
 OpenBabel07241711303D
CORINA evaluation license 3.49 0066  11.04.2013
 41 43  0  0  0  0  0  0  0  0999 V2000
    0.0476    2.8730    0.1199 C   0  0  0  0  0
    0.6595    1.4960    0.0995 C   0  0  0  0  0
    1.7957    1.1679   -0.5314 C   0  0  0  0  0
    2.0245   -0.2618   -0.2955 C   0  0  0  0  0
    0.9531   -0.7035    0.4994 C   0  0  0  0  0
    0.1389    0.3919    0.7298 N   0  0  0  0  0
   -0.9970    0.3759    1.4549 C   0  0  0  0  0
   -0.9491    0.5063    2.6622 O   0  0  0  0  0
   -2.2998    0.1998    0.7825 C   0  0  0  0  0
   -3.4851    0.2881    1.5160 C   0  0  0  0  0
   -4.6985    0.1232    0.8823 C   0  0  0  0  0
   -4.7435   -0.1296   -0.4790 C   0  0  0  0  0
   -3.5714   -0.2187   -1.2119 C   0  0  0  0  0
   -2.3520   -0.0500   -0.5907 C   0  0  0  0  0
   -6.2751   -0.3360   -1.2696 Cl  0  0  0  0  0
    0.8934   -2.0351    0.8915 C   0  0  0  0  0
    1.8810   -2.9132    0.5014 C   0  0  0  0  0
    2.9437   -2.4792   -0.2859 C   0  0  0  0  0
    3.0195   -1.1591   -0.6862 C   0  0  0  0  0
    3.9106   -3.3579   -0.6627 O   0  0  0  0  0
    3.7709   -4.7076   -0.2147 C   0  0  0  0  0
    2.6733    2.0940   -1.3333 C   0  0  0  0  0
    3.7070    2.7146   -0.4292 C   0  0  0  0  0
    3.7288    2.4336    0.7457 O   0  0  0  0  0
    4.6035    3.5795   -0.9292 O   0  0  0  0  0
   -0.6357    2.9794   -0.7226 H   0  0  0  0  0
   -0.5000    3.0135    1.0518 H   0  0  0  0  0
    0.8359    3.6221    0.0452 H   0  0  0  0  0
   -3.4513    0.4848    2.5774 H   0  0  0  0  0
   -5.6157    0.1909    1.4484 H   0  0  0  0  0
   -3.6129   -0.4167   -2.2727 H   0  0  0  0  0
   -1.4389   -0.1197   -1.1632 H   0  0  0  0  0
    0.0731   -2.3819    1.5024 H   0  0  0  0  0
    1.8303   -3.9471    0.8095 H   0  0  0  0  0
    3.8444   -0.8233   -1.2970 H   0  0  0  0  0
    3.7636   -4.7298    0.8751 H   0  0  0  0  0
    2.8360   -5.1211   -0.5928 H   0  0  0  0  0
    4.6067   -5.3016   -0.5846 H   0  0  0  0  0
    3.1718    1.5302   -2.1218 H   0  0  0  0  0
    2.0620    2.8789   -1.7787 H   0  0  0  0  0
    5.2469    3.9515   -0.3106 H   0  0  0  0  0
  1  2  1  0  0  0
  1 26  1  0  0  0
  1 27  1  0  0  0
  1 28  1  0  0  0
  2  3  2  0  0  0
  2  6  1  0  0  0
  3  4  1  0  0  0
  3 22  1  0  0  0
  4  5  2  0  0  0
  4 19  1  0  0  0
  5  6  1  0  0  0
  5 16  1  0  0  0
  6  7  1  0  0  0
  7  8  2  0  0  0
  7  9  1  0  0  0
  9 10  2  0  0  0
  9 14  1  0  0  0
 10 11  1  0  0  0
 10 29  1  0  0  0
 11 12  2  0  0  0
 11 30  1  0  0  0
 12 13  1  0  0  0
 12 15  1  0  0  0
 13 14  2  0  0  0
 13 31  1  0  0  0
 14 32  1  0  0  0
 16 17  2  0  0  0
 16 33  1  0  0  0
 17 18  1  0  0  0
 17 34  1  0  0  0
 18 19  2  0  0  0
 18 20  1  0  0  0
 19 35  1  0  0  0
 20 21  1  0  0  0
 21 36  1  0  0  0
 21 37  1  0  0  0
 21 38  1  0  0  0
 22 23  1  0  0  0
 22 39  1  0  0  0
 22 40  1  0  0  0
 23 24  2  0  0  0
 23 25  1  0  0  0
 25 41  1  0  0  0
M  END
>  <likely_enzyme_classes>
monooxygenase

>  <activity>
-10.8

>  <molID>
mol000177

>  <name>
Indomethacin

>  <reference>
Baena-Nogueras et al. (2017)

>  <speciation_state_pH7.4>
anionic

>  <substance_type>
nonsteroidal anti-inflammatory drug

>  <smiles>
COc1ccc2c(c1)c(CC(=O)O)c(C)n2C(=O)c1ccc(Cl)cc1

>  <inchi>
InChI=1S/C19H16ClNO4/c1-11-15(10-18(22)23)16-9-14(25-2)7-8-17(16)21(11)19(24)12-3-5-13(20)6-4-12/h3-9H,10H2,1-2H3,(H,22,23)

>  <inchikey>
CGIGDMFJXJATDK-UHFFFAOYSA-N

$$$$
