2-phenylphenol
 OpenBabel07241711303D
CORINA evaluation license 3.49 0066  11.04.2013
 23 24  0  0  0  0  0  0  0  0999 V2000
    0.7821    2.0701   -0.5100 O   0  0  0  0  0
    1.4094    0.9004   -0.2207 C   0  0  0  0  0
    2.7934    0.8391   -0.2056 C   0  0  0  0  0
    3.4306   -0.3518    0.0883 C   0  0  0  0  0
    2.6925   -1.4876    0.3693 C   0  0  0  0  0
    1.3128   -1.4406    0.3578 C   0  0  0  0  0
    0.6607   -0.2446    0.0685 C   0  0  0  0  0
   -0.8215   -0.1886    0.0548 C   0  0  0  0  0
   -1.5504   -1.1318   -0.6672 C   0  0  0  0  0
   -2.9293   -1.0749   -0.6765 C   0  0  0  0  0
   -3.5879   -0.0841    0.0292 C   0  0  0  0  0
   -2.8696    0.8547    0.7476 C   0  0  0  0  0
   -1.4905    0.8039    0.7686 C   0  0  0  0  0
    0.6004    2.1966   -1.4513 H   0  0  0  0  0
    3.3750    1.7225   -0.4242 H   0  0  0  0  0
    4.5097   -0.3958    0.0984 H   0  0  0  0  0
    3.1974   -2.4145    0.5981 H   0  0  0  0  0
    0.7398   -2.3294    0.5772 H   0  0  0  0  0
   -1.0372   -1.9056   -1.2188 H   0  0  0  0  0
   -3.4952   -1.8050   -1.2360 H   0  0  0  0  0
   -4.6671   -0.0431    0.0189 H   0  0  0  0  0
   -3.3890    1.6261    1.2967 H   0  0  0  0  0
   -0.9307    1.5372    1.3301 H   0  0  0  0  0
  1  2  1  0  0  0
  1 14  1  0  0  0
  2  3  2  0  0  0
  2  7  1  0  0  0
  3  4  1  0  0  0
  3 15  1  0  0  0
  4  5  2  0  0  0
  4 16  1  0  0  0
  5  6  1  0  0  0
  5 17  1  0  0  0
  6  7  2  0  0  0
  6 18  1  0  0  0
  7  8  1  0  0  0
  8  9  2  0  0  0
  8 13  1  0  0  0
  9 10  1  0  0  0
  9 19  1  0  0  0
 10 11  2  0  0  0
 10 20  1  0  0  0
 11 12  1  0  0  0
 11 21  1  0  0  0
 12 13  2  0  0  0
 12 22  1  0  0  0
 13 23  1  0  0  0
M  END
>  <likely_enzyme_classes>
monooxygenase

>  <activity>
-9.4

>  <molID>
mol000007

>  <name>
2-phenylphenol

>  <reference>
Mackay handbook of physical-chemical properties

>  <speciation_state_pH7.4>
neutral

>  <substance_type>
chemical substance

>  <smiles>
Oc1ccccc1-c1ccccc1

>  <inchi>
InChI=1S/C12H10O/c13-12-9-5-4-8-11(12)10-6-2-1-3-7-10/h1-9,13H

>  <inchikey>
LLEMOWNGBBNAJR-UHFFFAOYSA-N

$$$$
