ethylbenzene
 OpenBabel07241711303D
CORINA evaluation license 3.49 0066  11.04.2013
 18 18  0  0  0  0  0  0  0  0999 V2000
    2.7401    0.0009    0.7252 C   0  0  0  0  0
    1.9619   -0.0012   -0.5921 C   0  0  0  0  0
    0.4831   -0.0005   -0.3020 C   0  0  0  0  0
   -0.1950    1.1969   -0.1709 C   0  0  0  0  0
   -1.5515    1.1975    0.0952 C   0  0  0  0  0
   -2.2299    0.0006    0.2298 C   0  0  0  0  0
   -1.5520   -1.1968    0.0978 C   0  0  0  0  0
   -0.1963   -1.1974   -0.1727 C   0  0  0  0  0
    2.4825    0.8918    1.2979 H   0  0  0  0  0
    2.4823   -0.8881    1.3008 H   0  0  0  0  0
    3.8097    0.0004    0.5154 H   0  0  0  0  0
    2.2197    0.8879   -1.1677 H   0  0  0  0  0
    2.2195   -0.8921   -1.1648 H   0  0  0  0  0
    0.3351    2.1320   -0.2761 H   0  0  0  0  0
   -2.0812    2.1330    0.1983 H   0  0  0  0  0
   -3.2896    0.0010    0.4384 H   0  0  0  0  0
   -2.0820   -2.1319    0.2032 H   0  0  0  0  0
    0.3333   -2.1329   -0.2758 H   0  0  0  0  0
  1  2  1  0  0  0
  1  9  1  0  0  0
  1 10  1  0  0  0
  1 11  1  0  0  0
  2  3  1  0  0  0
  2 12  1  0  0  0
  2 13  1  0  0  0
  3  4  2  0  0  0
  3  8  1  0  0  0
  4  5  1  0  0  0
  4 14  1  0  0  0
  5  6  2  0  0  0
  5 15  1  0  0  0
  6  7  1  0  0  0
  6 16  1  0  0  0
  7  8  2  0  0  0
  7 17  1  0  0  0
  8 18  1  0  0  0
M  END
>  <likely_enzyme_classes>
dioxygenase; monooxygenase

>  <activity>
-10.7

>  <molID>
mol000073

>  <name>
ethylbenzene

>  <reference>
Ludzack Ettinger (1963); Aronson (1999)

>  <speciation_state_pH7.4>
neutral

>  <substance_type>
chemical substance

>  <smiles>
CCc1ccccc1

>  <inchi>
InChI=1S/C8H10/c1-2-8-6-4-3-5-7-8/h3-7H,2H2,1H3

>  <inchikey>
YNQLUTRBYVCPMQ-UHFFFAOYSA-N

$$$$
