acetophenone
 OpenBabel07241711303D
CORINA evaluation license 3.49 0066  11.04.2013
 17 17  0  0  0  0  0  0  0  0999 V2000
    2.4844    1.1664   -0.0011 C   0  0  0  0  0
    1.6746   -0.1046   -0.0004 C   0  0  0  0  0
    2.2345   -1.1801    0.0004 O   0  0  0  0  0
    0.2044   -0.0403   -0.0007 C   0  0  0  0  0
   -0.5506   -1.2176   -0.0000 C   0  0  0  0  0
   -1.9278   -1.1491    0.0002 C   0  0  0  0  0
   -2.5631    0.0805   -0.0007 C   0  0  0  0  0
   -1.8230    1.2501   -0.0018 C   0  0  0  0  0
   -0.4451    1.1982    0.0043 C   0  0  0  0  0
    3.5463    0.9206   -0.0008 H   0  0  0  0  0
    2.2464    1.7483   -0.8915 H   0  0  0  0  0
    2.2461    1.7495    0.8884 H   0  0  0  0  0
   -0.0563   -2.1778   -0.0000 H   0  0  0  0  0
   -2.5122   -2.0573    0.0007 H   0  0  0  0  0
   -3.6420    0.1277   -0.0009 H   0  0  0  0  0
   -2.3260    2.2058   -0.0029 H   0  0  0  0  0
    0.1311    2.1117    0.0033 H   0  0  0  0  0
  1  2  1  0  0  0
  1 10  1  0  0  0
  1 11  1  0  0  0
  1 12  1  0  0  0
  2  3  2  0  0  0
  2  4  1  0  0  0
  4  5  2  0  0  0
  4  9  1  0  0  0
  5  6  1  0  0  0
  5 13  1  0  0  0
  6  7  2  0  0  0
  6 14  1  0  0  0
  7  8  1  0  0  0
  7 15  1  0  0  0
  8  9  2  0  0  0
  8 16  1  0  0  0
  9 17  1  0  0  0
M  END
>  <likely_enzyme_classes>
dioxygenase; monooxygenase

>  <activity>
-10.1

>  <molID>
mol000029

>  <name>
acetophenone

>  <reference>
Mackay handbook of physical-chemical properties

>  <speciation_state_pH7.4>
neutral

>  <substance_type>
chemical substance

>  <smiles>
CC(=O)c1ccccc1

>  <inchi>
InChI=1S/C8H8O/c1-7(9)8-5-3-2-4-6-8/h2-6H,1H3

>  <inchikey>
KWOLFJPFCHCOCG-UHFFFAOYSA-N

$$$$
