fenitrothion
 OpenBabel07241711303D
CORINA evaluation license 3.49 0066  11.04.2013
 29 29  0  0  0  0  0  0  0  0999 V2000
   -3.0367    2.0858    1.2182 C   0  0  0  0  0
   -2.3969    1.5767    0.0462 O   0  0  0  0  0
   -2.2574    0.0029   -0.2632 P   0  0  0  0  0
   -1.7107   -0.8875    1.2800 S   0  0  0  0  0
   -3.6804   -0.5780   -0.7424 O   0  0  0  0  0
   -4.7658   -0.8171    0.1558 C   0  0  0  0  0
   -1.1671   -0.2207   -1.4265 O   0  0  0  0  0
    0.1191   -0.0660   -1.0159 C   0  0  0  0  0
    0.8295   -1.1546   -0.5318 C   0  0  0  0  0
    2.1372   -0.9948   -0.1154 C   0  0  0  0  0
    2.9097   -2.1770    0.4106 C   0  0  0  0  0
    2.7378    0.2487   -0.1812 C   0  0  0  0  0
    2.0316    1.3355   -0.6634 C   0  0  0  0  0
    0.7257    1.1800   -1.0854 C   0  0  0  0  0
    4.1387    0.4171    0.2656 N   0  0  0  0  0
    4.4758    1.4358    0.8419 O   0  0  0  0  0
    4.9544   -0.4630    0.0569 O   0  0  0  0  0
   -3.0068    3.1753    1.2043 H   0  0  0  0  0
   -4.0738    1.7511    1.2404 H   0  0  0  0  0
   -2.5176    1.7193    2.1038 H   0  0  0  0  0
   -4.4602   -1.5420    0.9102 H   0  0  0  0  0
   -5.0473    0.1168    0.6423 H   0  0  0  0  0
   -5.6179   -1.2084   -0.4000 H   0  0  0  0  0
    0.3608   -2.1262   -0.4802 H   0  0  0  0  0
    3.5042   -2.6097   -0.3941 H   0  0  0  0  0
    3.5693   -1.8513    1.2149 H   0  0  0  0  0
    2.2143   -2.9251    0.7913 H   0  0  0  0  0
    2.5030    2.3059   -0.7138 H   0  0  0  0  0
    0.1747    2.0290   -1.4622 H   0  0  0  0  0
  1  2  1  0  0  0
  1 18  1  0  0  0
  1 19  1  0  0  0
  1 20  1  0  0  0
  2  3  1  0  0  0
  3  4  2  0  0  0
  3  5  1  0  0  0
  3  7  1  0  0  0
  5  6  1  0  0  0
  6 21  1  0  0  0
  6 22  1  0  0  0
  6 23  1  0  0  0
  7  8  1  0  0  0
  8  9  2  0  0  0
  8 14  1  0  0  0
  9 10  1  0  0  0
  9 24  1  0  0  0
 10 11  1  0  0  0
 10 12  2  0  0  0
 11 25  1  0  0  0
 11 26  1  0  0  0
 11 27  1  0  0  0
 12 13  1  0  0  0
 12 15  1  0  0  0
 13 14  2  0  0  0
 13 28  1  0  0  0
 14 29  1  0  0  0
 15 16  1  0  0  0
 15 17  2  0  0  0
M  CHG  2  15   1  16  -1
M  END
>  <likely_enzyme_classes>
hydrolase (phosphatase); nitroreductase; oxidoreductase

>  <activity>
-12.3

>  <molID>
mol000160

>  <name>
fenitrothion

>  <reference>
Kaonga et al. (2016)

>  <speciation_state_pH7.4>
neutral

>  <substance_type>
insecticide

>  <smiles>
COP(=S)(OC)Oc1ccc([N+](=O)[O-])c(C)c1

>  <inchi>
InChI=1S/C9H12NO5PS/c1-7-6-8(4-5-9(7)10(11)12)15-16(17,13-2)14-3/h4-6H,1-3H3

>  <inchikey>
ZNOLGFHPUIJIMJ-UHFFFAOYSA-N

$$$$
