fluphenazine
 OpenBabel07241711303D
CORINA evaluation license 3.49 0066  11.04.2013
 56 59  0  0  0  0  0  0  0  0999 V2000
    7.7823    1.3149   -0.6746 O   0  0  0  0  0
    7.3521    0.2928   -1.5759 C   0  0  0  0  0
    6.8582   -0.9157   -0.7781 C   0  0  0  0  0
    5.6919   -0.5280    0.0265 N   0  0  0  0  0
    5.1329   -1.6870    0.7363 C   0  0  0  0  0
    3.9725   -1.2280    1.6224 C   0  0  0  0  0
    2.9495   -0.5808    0.7892 N   0  0  0  0  0
    1.7832   -0.1931    1.5938 C   0  0  0  0  0
    0.6471    0.2447    0.6672 C   0  0  0  0  0
   -0.5676    0.6485    1.5052 C   0  0  0  0  0
   -1.6554    1.0677    0.6179 N   0  0  0  0  0
   -1.7209    2.4127    0.2620 C   0  0  0  0  0
   -0.5567    3.1727    0.2999 C   0  0  0  0  0
   -0.5854    4.5116   -0.0423 C   0  0  0  0  0
   -1.7729    5.1051   -0.4251 C   0  0  0  0  0
   -2.9359    4.3580   -0.4684 C   0  0  0  0  0
   -2.9150    3.0124   -0.1272 C   0  0  0  0  0
   -4.4081    2.0822   -0.1935 S   0  0  0  0  0
   -3.8491    0.4130   -0.2085 C   0  0  0  0  0
   -2.5505    0.0930    0.1833 C   0  0  0  0  0
   -2.1375   -1.2351    0.1560 C   0  0  0  0  0
   -3.0069   -2.2283   -0.2527 C   0  0  0  0  0
   -4.2951   -1.9084   -0.6378 C   0  0  0  0  0
   -4.7154   -0.5911   -0.6204 C   0  0  0  0  0
   -2.5492   -3.6639   -0.2790 C   0  0  0  0  0
   -2.8172   -4.2615    0.9572 F   0  0  0  0  0
   -3.2316   -4.3525   -1.2877 F   0  0  0  0  0
   -1.1739   -3.7103   -0.5310 F   0  0  0  0  0
    3.5085    0.5782    0.0794 C   0  0  0  0  0
    4.6689    0.1193   -0.8068 C   0  0  0  0  0
    8.1092    2.1130   -1.1121 H   0  0  0  0  0
    6.5416    0.6739   -2.1972 H   0  0  0  0  0
    8.1862   -0.0068   -2.2103 H   0  0  0  0  0
    6.5767   -1.7140   -1.4649 H   0  0  0  0  0
    7.6533   -1.2662   -0.1200 H   0  0  0  0  0
    4.7710   -2.4169    0.0122 H   0  0  0  0  0
    5.9060   -2.1414    1.3559 H   0  0  0  0  0
    3.5377   -2.0904    2.1277 H   0  0  0  0  0
    4.3397   -0.5186    2.3640 H   0  0  0  0  0
    1.4564   -1.0429    2.1929 H   0  0  0  0  0
    2.0540    0.6327    2.2518 H   0  0  0  0  0
    0.9740    1.0945    0.0680 H   0  0  0  0  0
    0.3763   -0.5811    0.0092 H   0  0  0  0  0
   -0.8944   -0.2013    2.1043 H   0  0  0  0  0
   -0.2968    1.4743    2.1631 H   0  0  0  0  0
    0.3745    2.7144    0.5986 H   0  0  0  0  0
    0.3226    5.0954   -0.0101 H   0  0  0  0  0
   -1.7930    6.1519   -0.6901 H   0  0  0  0  0
   -3.8634    4.8228   -0.7686 H   0  0  0  0  0
   -1.1320   -1.4912    0.4555 H   0  0  0  0  0
   -4.9731   -2.6867   -0.9555 H   0  0  0  0  0
   -5.7223   -0.3434   -0.9225 H   0  0  0  0  0
    2.7354    1.0326   -0.5403 H   0  0  0  0  0
    3.8704    1.3081    0.8034 H   0  0  0  0  0
    5.1037    0.9816   -1.3121 H   0  0  0  0  0
    4.3017   -0.5902   -1.5483 H   0  0  0  0  0
  1  2  1  0  0  0
  1 31  1  0  0  0
  2  3  1  0  0  0
  2 32  1  0  0  0
  2 33  1  0  0  0
  3  4  1  0  0  0
  3 34  1  0  0  0
  3 35  1  0  0  0
  4  5  1  0  0  0
  4 30  1  0  0  0
  5  6  1  0  0  0
  5 36  1  0  0  0
  5 37  1  0  0  0
  6  7  1  0  0  0
  6 38  1  0  0  0
  6 39  1  0  0  0
  7  8  1  0  0  0
  7 29  1  0  0  0
  8  9  1  0  0  0
  8 40  1  0  0  0
  8 41  1  0  0  0
  9 10  1  0  0  0
  9 42  1  0  0  0
  9 43  1  0  0  0
 10 11  1  0  0  0
 10 44  1  0  0  0
 10 45  1  0  0  0
 11 12  1  0  0  0
 11 20  1  0  0  0
 12 13  2  0  0  0
 12 17  1  0  0  0
 13 14  1  0  0  0
 13 46  1  0  0  0
 14 15  2  0  0  0
 14 47  1  0  0  0
 15 16  1  0  0  0
 15 48  1  0  0  0
 16 17  2  0  0  0
 16 49  1  0  0  0
 17 18  1  0  0  0
 18 19  1  0  0  0
 19 20  2  0  0  0
 19 24  1  0  0  0
 20 21  1  0  0  0
 21 22  2  0  0  0
 21 50  1  0  0  0
 22 23  1  0  0  0
 22 25  1  0  0  0
 23 24  2  0  0  0
 23 51  1  0  0  0
 24 52  1  0  0  0
 25 26  1  0  0  0
 25 27  1  0  0  0
 25 28  1  0  0  0
 29 30  1  0  0  0
 29 53  1  0  0  0
 29 54  1  0  0  0
 30 55  1  0  0  0
 30 56  1  0  0  0
M  END
>  <likely_enzyme_classes>
alcohol dehydrogenase; amine dehydrogenase; dioxygenase; monooxygenase

>  <activity>
-11.7

>  <molID>
mol000138

>  <name>
fluphenazine

>  <reference>
Tappin et al. (2016)

>  <speciation_state_pH7.4>
cationic

>  <substance_type>
antipsychotic drug

>  <smiles>
OCCN1CCN(CCCN2c3ccccc3Sc3ccc(C(F)(F)F)cc32)CC1

>  <inchi>
InChI=1S/C22H26F3N3OS/c23-22(24,25)17-6-7-21-19(16-17)28(18-4-1-2-5-20(18)30-21)9-3-8-26-10-12-27(13-11-26)14-15-29/h1-2,4-7,16,29H,3,8-15H2

>  <inchikey>
PLDUPXSUYLZYBN-UHFFFAOYSA-N

$$$$
