1-butoxymethylimidazolium L-lactate
 OpenBabel07241711303D
CORINA evaluation license 3.49 0066  11.04.2013
 26 26  0  0  0  0  0  0  0  0999 V2000
    5.2708   -0.1381   -0.0000 C   0  0  0  0  0
    3.9119    0.5648   -0.0004 C   0  0  0  0  0
    2.7962   -0.4821    0.0005 C   0  0  0  0  0
    1.4372    0.2209    0.0001 C   0  0  0  0  0
    0.3951   -0.7569    0.0009 O   0  0  0  0  0
   -0.9100   -0.2076    0.0007 N   0  0  0  0  0
   -1.2313    1.1229   -0.0007 C   0  0  0  0  0
   -2.5758    1.1992   -0.0004 C   0  0  0  0  0
   -3.0623   -0.0508    0.0011 N   0  0  0  0  0
   -4.4831   -0.4079    0.0019 C   0  0  0  0  0
   -2.0702   -0.8987   -0.0041 C   0  0  0  0  0
    5.3576   -0.7608    0.8904 H   0  0  0  0  0
    5.3574   -0.7621   -0.8895 H   0  0  0  0  0
    6.0657    0.6077   -0.0006 H   0  0  0  0  0
    3.8254    1.1888    0.8892 H   0  0  0  0  0
    3.8252    1.1875   -0.8908 H   0  0  0  0  0
    2.8827   -1.1060   -0.8890 H   0  0  0  0  0
    2.8829   -1.1047    0.8909 H   0  0  0  0  0
    1.3507    0.8449    0.8897 H   0  0  0  0  0
    1.3505    0.8436   -0.8903 H   0  0  0  0  0
   -0.5395    1.9523   -0.0013 H   0  0  0  0  0
   -3.1600    2.1075   -0.0013 H   0  0  0  0  0
   -4.8358   -0.4972   -1.0256 H   0  0  0  0  0
   -4.6183   -1.3592    0.5164 H   0  0  0  0  0
   -5.0522    0.3671    0.5154 H   0  0  0  0  0
   -2.1619   -1.9748   -0.0047 H   0  0  0  0  0
  1  2  1  0  0  0
  1 12  1  0  0  0
  1 13  1  0  0  0
  1 14  1  0  0  0
  2  3  1  0  0  0
  2 15  1  0  0  0
  2 16  1  0  0  0
  3  4  1  0  0  0
  3 17  1  0  0  0
  3 18  1  0  0  0
  4  5  1  0  0  0
  4 19  1  0  0  0
  4 20  1  0  0  0
  5  6  1  0  0  0
  6  7  1  0  0  0
  6 11  1  0  0  0
  7  8  2  0  0  0
  7 21  1  0  0  0
  8  9  1  0  0  0
  8 22  1  0  0  0
  9 10  1  0  0  0
  9 11  2  0  0  0
 10 23  1  0  0  0
 10 24  1  0  0  0
 10 25  1  0  0  0
 11 26  1  0  0  0
M  CHG  1   9   1
M  END
>  <likely_enzyme_classes>
demethylase

>  <activity>
-11.8

>  <molID>
mol000146

>  <name>
1-butoxymethylimidazolium L-lactate

>  <reference>
GARBACZEWSKA and JarosĊaw HUPKO (2007)

>  <speciation_state_pH7.4>
cationic

>  <substance_type>
ionic liquid

>  <smiles>
CCCCOn1cc[n+](C)c1

>  <inchi>
InChI=1S/C8H15N2O/c1-3-4-7-11-10-6-5-9(2)8-10/h5-6,8H,3-4,7H2,1-2H3/q+1

>  <inchikey>
IYAXAKCGVBOMFW-UHFFFAOYSA-N

$$$$
