Hydrochlorothiazide
 OpenBabel07241711303D
CORINA evaluation license 3.49 0066  11.04.2013
 25 26  0  0  0  0  0  0  0  0999 V2000
    3.6664   -1.5609   -0.3704 C   0  0  0  0  0
    2.3675   -2.0690    0.0639 N   0  0  0  0  0
    1.2026   -1.3067    0.0473 C   0  0  0  0  0
   -0.0278   -1.9610    0.0420 C   0  0  0  0  0
   -1.2013   -1.2338    0.0439 C   0  0  0  0  0
   -1.1643    0.1495    0.0502 C   0  0  0  0  0
    0.0537    0.8054    0.0468 C   0  0  0  0  0
    1.2275    0.0819    0.0421 C   0  0  0  0  0
    2.7809    0.9249    0.0179 S   0  0  0  0  0
    2.9808    1.3787   -1.3138 O   0  0  0  0  0
    2.7994    1.7835    1.1501 O   0  0  0  0  0
    3.9151   -0.2665    0.2962 N   0  0  0  0  0
   -2.6648    1.0732    0.0620 S   0  0  0  0  0
   -3.4745    0.5101    1.0850 O   0  0  0  0  0
   -2.2922    2.4442    0.0319 O   0  0  0  0  0
   -3.4397    0.7676   -1.3692 N   0  0  0  0  0
   -2.7292   -2.0579    0.0376 Cl  0  0  0  0  0
    4.4471   -2.2700   -0.0950 H   0  0  0  0  0
    3.6614   -1.4206   -1.4513 H   0  0  0  0  0
    2.3138   -2.9846    0.3797 H   0  0  0  0  0
   -0.0635   -3.0404    0.0362 H   0  0  0  0  0
    0.0853    1.8849    0.0475 H   0  0  0  0  0
    4.6899   -0.1183    0.8607 H   0  0  0  0  0
   -4.4085    0.7940   -1.4115 H   0  0  0  0  0
   -2.9250    0.5623   -2.1653 H   0  0  0  0  0
  1  2  1  0  0  0
  1 12  1  0  0  0
  1 18  1  0  0  0
  1 19  1  0  0  0
  2  3  1  0  0  0
  2 20  1  0  0  0
  3  4  2  0  0  0
  3  8  1  0  0  0
  4  5  1  0  0  0
  4 21  1  0  0  0
  5  6  2  0  0  0
  5 17  1  0  0  0
  6  7  1  0  0  0
  6 13  1  0  0  0
  7  8  2  0  0  0
  7 22  1  0  0  0
  8  9  1  0  0  0
  9 10  2  0  0  0
  9 11  2  0  0  0
  9 12  1  0  0  0
 12 23  1  0  0  0
 13 14  2  0  0  0
 13 15  2  0  0  0
 13 16  1  0  0  0
 16 24  1  0  0  0
 16 25  1  0  0  0
M  END
>  <likely_enzyme_classes>
amine dehydrogenase;sulfanilamide hydrolase

>  <activity>
-10.8

>  <molID>
mol000187

>  <name>
Hydrochlorothiazide

>  <reference>
Baena-Nogueras et al. (2017)

>  <speciation_state_pH7.4>
neutral

>  <substance_type>
diuretic drug

>  <smiles>
NS(=O)(=O)c1cc2c(cc1Cl)NCNS2(=O)=O

>  <inchi>
InChI=1S/C7H8ClN3O4S2/c8-4-1-5-7(2-6(4)16(9,12)13)17(14,15)11-3-10-5/h1-2,10-11H,3H2,(H2,9,12,13)

>  <inchikey>
JZUFKLXOESDKRF-UHFFFAOYSA-N

$$$$
