cyclophosphamide
 OpenBabel07241711303D
CORINA evaluation license 3.49 0066  11.04.2013
 29 29  0  0  0  0  0  0  0  0999 V2000
   -3.8050   -2.1458    0.2871 Cl  0  0  0  0  0
   -2.6556   -0.9973   -0.4944 C   0  0  0  0  0
   -1.3319   -0.9992    0.2728 C   0  0  0  0  0
   -0.3955   -0.0635   -0.3639 N   0  0  0  0  0
   -0.4212    1.2440    0.3053 C   0  0  0  0  0
   -1.3180    2.2020   -0.4813 C   0  0  0  0  0
   -1.2275    3.8473    0.2504 Cl  0  0  0  0  0
    1.1638   -0.6962   -0.3919 P   0  0  0  0  0
    1.1990   -1.9145   -1.2315 O   0  0  0  0  0
    2.2428    0.4552   -1.0003 N   0  0  0  0  0
    3.6238    0.0445   -0.6963 C   0  0  0  0  0
    3.8194   -0.0438    0.8158 C   0  0  0  0  0
    3.0466   -1.2337    1.3878 C   0  0  0  0  0
    1.6449   -1.0494    1.1164 O   0  0  0  0  0
   -2.4787   -1.3051   -1.5250 H   0  0  0  0  0
   -3.0807    0.0064   -0.4829 H   0  0  0  0  0
   -1.5088   -0.6914    1.3034 H   0  0  0  0  0
   -0.9068   -2.0029    0.2613 H   0  0  0  0  0
   -0.8124    1.1273    1.3159 H   0  0  0  0  0
    0.5900    1.6483    0.3516 H   0  0  0  0  0
   -0.9820    2.2461   -1.5173 H   0  0  0  0  0
   -2.3476    1.8457   -0.4481 H   0  0  0  0  0
    2.1137    0.5829   -1.9929 H   0  0  0  0  0
    3.8186   -0.9300   -1.1441 H   0  0  0  0  0
    4.3183    0.7763   -1.1090 H   0  0  0  0  0
    4.8802   -0.1651    1.0348 H   0  0  0  0  0
    3.4598    0.8749    1.2793 H   0  0  0  0  0
    3.3910   -2.1541    0.9162 H   0  0  0  0  0
    3.2063   -1.2899    2.4646 H   0  0  0  0  0
  1  2  1  0  0  0
  2  3  1  0  0  0
  2 15  1  0  0  0
  2 16  1  0  0  0
  3  4  1  0  0  0
  3 17  1  0  0  0
  3 18  1  0  0  0
  4  5  1  0  0  0
  4  8  1  0  0  0
  5  6  1  0  0  0
  5 19  1  0  0  0
  5 20  1  0  0  0
  6  7  1  0  0  0
  6 21  1  0  0  0
  6 22  1  0  0  0
  8  9  2  0  0  0
  8 10  1  0  0  0
  8 14  1  0  0  0
 10 11  1  0  0  0
 10 23  1  0  0  0
 11 12  1  0  0  0
 11 24  1  0  0  0
 11 25  1  0  0  0
 12 13  1  0  0  0
 12 26  1  0  0  0
 12 27  1  0  0  0
 13 14  1  0  0  0
 13 28  1  0  0  0
 13 29  1  0  0  0
M  END
>  <likely_enzyme_classes>
phosphoamide hydrolase; dehalogenase

>  <activity>
-11

>  <molID>
mol000168

>  <name>
cyclophosphamide

>  <reference>
Howard: Handbook of Environmental Degradation Rates; Kiffmeyer et al. (1998)

>  <speciation_state_pH7.4>
neutral

>  <substance_type>
antineoplastic drug

>  <smiles>
O=P1(N(CCCl)CCCl)NCCCO1

>  <inchi>
InChI=1S/C7H15Cl2N2O2P/c8-2-5-11(6-3-9)14(12)10-4-1-7-13-14/h1-7H2,(H,10,12)

>  <inchikey>
CMSMOCZEIVJLDB-UHFFFAOYSA-N

$$$$
