2,4,6-trichlorophenol
 OpenBabel07241711303D
CORINA evaluation license 3.49 0066  11.04.2013
 13 13  0  0  0  0  0  0  0  0999 V2000
    2.5203   -0.0000   -0.0112 O   0  0  0  0  0
    1.1606   -0.0000   -0.0067 C   0  0  0  0  0
    0.4657    1.2012   -0.0056 C   0  0  0  0  0
    1.3317    2.7058   -0.0105 Cl  0  0  0  0  0
   -0.9170    1.1988   -0.0011 C   0  0  0  0  0
   -1.6077   -0.0000    0.0024 C   0  0  0  0  0
   -3.3437   -0.0000    0.0075 Cl  0  0  0  0  0
   -0.9169   -1.1988    0.0013 C   0  0  0  0  0
    0.4657   -1.2013   -0.0091 C   0  0  0  0  0
    1.3317   -2.7058   -0.0104 Cl  0  0  0  0  0
    2.9165    0.0008    0.8709 H   0  0  0  0  0
   -1.4582    2.1334    0.0002 H   0  0  0  0  0
   -1.4582   -2.1334    0.0040 H   0  0  0  0  0
  1  2  1  0  0  0
  1 11  1  0  0  0
  2  3  2  0  0  0
  2  9  1  0  0  0
  3  4  1  0  0  0
  3  5  1  0  0  0
  5  6  2  0  0  0
  5 12  1  0  0  0
  6  7  1  0  0  0
  6  8  1  0  0  0
  8  9  2  0  0  0
  8 13  1  0  0  0
  9 10  1  0  0  0
M  END
>  <likely_enzyme_classes>
dehalogenase

>  <activity>
-11

>  <molID>
mol000114

>  <name>
2,4,6-trichlorophenol

>  <reference>
Mackay handbook of physical-chemical properties

>  <speciation_state_pH7.4>
anionic

>  <substance_type>
chemical substance

>  <smiles>
Oc1c(Cl)cc(Cl)cc1Cl

>  <inchi>
InChI=1S/C6H3Cl3O/c7-3-1-4(8)6(10)5(9)2-3/h1-2,10H

>  <inchikey>
LINPIYWFGCPVIE-UHFFFAOYSA-N

$$$$
