propranolol
 OpenBabel07241711303D
CORINA evaluation license 3.49 0066  11.04.2013
 40 41  0  0  0  0  0  0  0  0999 V2000
    6.1622   -0.5897   -1.0382 C   0  0  0  0  0
    5.6544   -0.2401    0.3620 C   0  0  0  0  0
    6.6972    0.6158    1.0838 C   0  0  0  0  0
    4.3958    0.5096    0.2535 N   0  0  0  0  0
    3.2493   -0.4010    0.1336 C   0  0  0  0  0
    1.9596    0.4147    0.0230 C   0  0  0  0  0
    1.9741    1.1663   -1.1923 O   0  0  0  0  0
    0.7566   -0.5307    0.0237 C   0  0  0  0  0
   -0.4503    0.2343    0.0378 O   0  0  0  0  0
   -1.6189   -0.4577    0.0403 C   0  0  0  0  0
   -1.6093   -1.8239    0.0295 C   0  0  0  0  0
   -2.7986   -2.5480    0.0319 C   0  0  0  0  0
   -4.0049   -1.9173    0.0449 C   0  0  0  0  0
   -4.0580   -0.5126    0.0567 C   0  0  0  0  0
   -5.2856    0.1707    0.0693 C   0  0  0  0  0
   -5.2986    1.5320    0.0796 C   0  0  0  0  0
   -4.1111    2.2603    0.0774 C   0  0  0  0  0
   -2.9033    1.6314    0.0654 C   0  0  0  0  0
   -2.8504    0.2288    0.0599 C   0  0  0  0  0
    7.0961   -1.1460   -0.9577 H   0  0  0  0  0
    5.4193   -1.1995   -1.5524 H   0  0  0  0  0
    6.3330    0.3272   -1.6022 H   0  0  0  0  0
    5.4836   -1.1571    0.9260 H   0  0  0  0  0
    6.8680    1.5327    0.5198 H   0  0  0  0  0
    6.3355    0.8648    2.0813 H   0  0  0  0  0
    7.6311    0.0595    1.1643 H   0  0  0  0  0
    4.2796    1.1363    1.0356 H   0  0  0  0  0
    3.3667   -1.0177   -0.7574 H   0  0  0  0  0
    3.2000   -1.0410    1.0146 H   0  0  0  0  0
    1.8868    1.0960    0.8707 H   0  0  0  0  0
    2.0375    0.6232   -1.9899 H   0  0  0  0  0
    0.7824   -1.1522   -0.8714 H   0  0  0  0  0
    0.7944   -1.1661    0.9085 H   0  0  0  0  0
   -0.6659   -2.3497    0.0187 H   0  0  0  0  0
   -2.7635   -3.6274    0.0229 H   0  0  0  0  0
   -4.9180   -2.4940    0.0459 H   0  0  0  0  0
   -6.2140   -0.3811    0.0704 H   0  0  0  0  0
   -6.2435    2.0550    0.0892 H   0  0  0  0  0
   -4.1489    3.3396    0.0850 H   0  0  0  0  0
   -1.9907    2.2090    0.0638 H   0  0  0  0  0
  1  2  1  0  0  0
  1 20  1  0  0  0
  1 21  1  0  0  0
  1 22  1  0  0  0
  2  3  1  0  0  0
  2  4  1  0  0  0
  2 23  1  0  0  0
  3 24  1  0  0  0
  3 25  1  0  0  0
  3 26  1  0  0  0
  4  5  1  0  0  0
  4 27  1  0  0  0
  5  6  1  0  0  0
  5 28  1  0  0  0
  5 29  1  0  0  0
  6  7  1  0  0  0
  6  8  1  0  0  0
  6 30  1  0  0  0
  7 31  1  0  0  0
  8  9  1  0  0  0
  8 32  1  0  0  0
  8 33  1  0  0  0
  9 10  1  0  0  0
 10 11  2  0  0  0
 10 19  1  0  0  0
 11 12  1  0  0  0
 11 34  1  0  0  0
 12 13  2  0  0  0
 12 35  1  0  0  0
 13 14  1  0  0  0
 13 36  1  0  0  0
 14 15  2  0  0  0
 14 19  1  0  0  0
 15 16  1  0  0  0
 15 37  1  0  0  0
 16 17  2  0  0  0
 16 38  1  0  0  0
 17 18  1  0  0  0
 17 39  1  0  0  0
 18 19  2  0  0  0
 18 40  1  0  0  0
M  END
>  <likely_enzyme_classes>
alcohol dehydrogenase; monooxygenase

>  <activity>
-11

>  <molID>
mol000045

>  <name>
propranolol

>  <reference>
Lin et al. (2010); Baena-Nogueras et al. (2017)

>  <speciation_state_pH7.4>
cationic

>  <substance_type>
beta blocker drug

>  <smiles>
CC(C)NCC(O)COc1cccc2ccccc21

>  <inchi>
InChI=1S/C16H21NO2/c1-12(2)17-10-14(18)11-19-16-9-5-7-13-6-3-4-8-15(13)16/h3-9,12,14,17-18H,10-11H2,1-2H3

>  <inchikey>
AQHHHDLHHXJYJD-UHFFFAOYSA-N

$$$$
