n-butyraldehyde
 OpenBabel07241711303D
CORINA evaluation license 3.49 0066  11.04.2013
 13 12  0  0  0  0  0  0  0  0999 V2000
    2.4506   -0.2062   -0.1102 C   0  0  0  0  0
    1.1075    0.5260   -0.1358 C   0  0  0  0  0
   -0.0007   -0.4253    0.3200 C   0  0  0  0  0
   -1.3237    0.2960    0.2948 C   0  0  0  0  0
   -2.2486   -0.1608   -0.3331 O   0  0  0  0  0
    3.2402    0.4715   -0.4350 H   0  0  0  0  0
    2.6591   -0.5476    0.9037 H   0  0  0  0  0
    2.4095   -1.0642   -0.7813 H   0  0  0  0  0
    1.1486    1.3840    0.5352 H   0  0  0  0  0
    0.8990    0.8674   -1.1497 H   0  0  0  0  0
   -0.0419   -1.2833   -0.3510 H   0  0  0  0  0
    0.2077   -0.7667    1.3339 H   0  0  0  0  0
   -1.4447    1.2213    0.8384 H   0  0  0  0  0
  1  2  1  0  0  0
  1  6  1  0  0  0
  1  7  1  0  0  0
  1  8  1  0  0  0
  2  3  1  0  0  0
  2  9  1  0  0  0
  2 10  1  0  0  0
  3  4  1  0  0  0
  3 11  1  0  0  0
  3 12  1  0  0  0
  4  5  2  0  0  0
  4 13  1  0  0  0
M  END
>  <likely_enzyme_classes>
aldehyde dehydrogenase

>  <activity>
-9.8

>  <molID>
mol000124

>  <name>
n-butyraldehyde

>  <reference>
Mackay handbook of physical-chemical properties

>  <speciation_state_pH7.4>
neutral

>  <substance_type>
chemical substance

>  <smiles>
CCCC=O

>  <inchi>
InChI=1S/C4H8O/c1-2-3-4-5/h4H,2-3H2,1H3

>  <inchikey>
ZTQSAGDEMFDKMZ-UHFFFAOYSA-N

$$$$
