2-amino-5-chlorobenzophenone
 OpenBabel07241711303D
CORINA evaluation license 3.49 0066  11.04.2013
 26 27  0  0  0  0  0  0  0  0999 V2000
    0.3050   -2.5785   -0.0862 N   0  0  0  0  0
   -0.6985   -1.6218   -0.0080 C   0  0  0  0  0
   -0.4876   -0.3334   -0.5264 C   0  0  0  0  0
   -1.5068    0.6204   -0.4409 C   0  0  0  0  0
   -2.7077    0.2916    0.1494 C   0  0  0  0  0
   -3.9717    1.4770    0.2539 Cl  0  0  0  0  0
   -2.9120   -0.9822    0.6603 C   0  0  0  0  0
   -1.9184   -1.9357    0.5784 C   0  0  0  0  0
    0.7991    0.0109   -1.1557 C   0  0  0  0  0
    0.8814    0.0925   -2.3662 O   0  0  0  0  0
    1.9901    0.2572   -0.3157 C   0  0  0  0  0
    3.2136    0.5748   -0.9094 C   0  0  0  0  0
    4.3210    0.8034   -0.1195 C   0  0  0  0  0
    4.2217    0.7187    1.2581 C   0  0  0  0  0
    3.0125    0.4040    1.8530 C   0  0  0  0  0
    1.8956    0.1791    1.0754 C   0  0  0  0  0
    1.1113   -2.3952   -0.5933 H   0  0  0  0  0
    0.2013   -3.4284    0.3696 H   0  0  0  0  0
   -1.3528    1.6134   -0.8367 H   0  0  0  0  0
   -3.8567   -1.2301    1.1214 H   0  0  0  0  0
   -2.0859   -2.9249    0.9783 H   0  0  0  0  0
    3.2926    0.6408   -1.9844 H   0  0  0  0  0
    5.2679    1.0487   -0.5773 H   0  0  0  0  0
    5.0919    0.8986    1.8719 H   0  0  0  0  0
    2.9421    0.3389    2.9287 H   0  0  0  0  0
    0.9525   -0.0661    1.5409 H   0  0  0  0  0
  1  2  1  0  0  0
  1 17  1  0  0  0
  1 18  1  0  0  0
  2  3  2  0  0  0
  2  8  1  0  0  0
  3  4  1  0  0  0
  3  9  1  0  0  0
  4  5  2  0  0  0
  4 19  1  0  0  0
  5  6  1  0  0  0
  5  7  1  0  0  0
  7  8  2  0  0  0
  7 20  1  0  0  0
  8 21  1  0  0  0
  9 10  2  0  0  0
  9 11  1  0  0  0
 11 12  2  0  0  0
 11 16  1  0  0  0
 12 13  1  0  0  0
 12 22  1  0  0  0
 13 14  2  0  0  0
 13 23  1  0  0  0
 14 15  1  0  0  0
 14 24  1  0  0  0
 15 16  2  0  0  0
 15 25  1  0  0  0
 16 26  1  0  0  0
M  END
>  <likely_enzyme_classes>
dioxygenase

>  <activity>
-11.4

>  <molID>
mol000080

>  <name>
2-amino-5-chlorobenzophenone

>  <reference>
Tappin et al. (2014)

>  <speciation_state_pH7.4>
neutral

>  <substance_type>
chemical substance

>  <smiles>
Nc1ccc(Cl)cc1C(=O)c1ccccc1

>  <inchi>
InChI=1S/C13H10ClNO/c14-10-6-7-12(15)11(8-10)13(16)9-4-2-1-3-5-9/h1-8H,15H2

>  <inchikey>
ZUWXHHBROGLWNH-UHFFFAOYSA-N

$$$$
