levamisole
 OpenBabel07241711303D
CORINA evaluation license 3.49 0066  11.04.2013
 26 28  0  0  0  0  0  0  0  0999 V2000
    3.7823    0.1368   -0.8450 C   0  0  0  0  0
    2.7364   -0.9055   -1.2294 C   0  0  0  0  0
    1.5346   -0.8298   -0.3984 N   0  0  0  0  0
    0.2466   -1.5790   -0.3377 C   0  0  0  0  0
   -0.5117   -0.9032    0.8143 C   0  0  0  0  0
    0.4050    0.1380    1.2787 N   0  0  0  0  0
    1.5103    0.1249    0.5709 C   0  0  0  0  0
    3.0300    1.0453    0.5357 S   0  0  0  0  0
   -1.7957   -0.2924    0.3151 C   0  0  0  0  0
   -2.9941   -0.9565    0.4984 C   0  0  0  0  0
   -4.1719   -0.3963    0.0405 C   0  0  0  0  0
   -4.1514    0.8284   -0.6004 C   0  0  0  0  0
   -2.9531    1.4929   -0.7830 C   0  0  0  0  0
   -1.7758    0.9347   -0.3212 C   0  0  0  0  0
    4.7037   -0.3490   -0.5240 H   0  0  0  0  0
    3.9762    0.8080   -1.6817 H   0  0  0  0  0
    2.4544   -0.7542   -2.2713 H   0  0  0  0  0
    3.1740   -1.8985   -1.1264 H   0  0  0  0  0
   -0.3031   -1.4728   -1.2729 H   0  0  0  0  0
    0.4251   -2.6308   -0.1142 H   0  0  0  0  0
   -0.7125   -1.6190    1.6114 H   0  0  0  0  0
   -3.0102   -1.9133    0.9992 H   0  0  0  0  0
   -5.1082   -0.9155    0.1831 H   0  0  0  0  0
   -5.0715    1.2658   -0.9588 H   0  0  0  0  0
   -2.9370    2.4495   -1.2840 H   0  0  0  0  0
   -0.8396    1.4539   -0.4638 H   0  0  0  0  0
  1  2  1  0  0  0
  1  8  1  0  0  0
  1 15  1  0  0  0
  1 16  1  0  0  0
  2  3  1  0  0  0
  2 17  1  0  0  0
  2 18  1  0  0  0
  3  4  1  0  0  0
  3  7  1  0  0  0
  4  5  1  0  0  0
  4 19  1  0  0  0
  4 20  1  0  0  0
  5  6  1  0  0  0
  5  9  1  0  0  0
  5 21  1  0  0  0
  6  7  2  0  0  0
  7  8  1  0  0  0
  9 10  2  0  0  0
  9 14  1  0  0  0
 10 11  1  0  0  0
 10 22  1  0  0  0
 11 12  2  0  0  0
 11 23  1  0  0  0
 12 13  1  0  0  0
 12 24  1  0  0  0
 13 14  2  0  0  0
 13 25  1  0  0  0
 14 26  1  0  0  0
M  END
>  <likely_enzyme_classes>
amine dehydrogenase; oxidoreductase

>  <activity>
-10.8

>  <molID>
mol000143

>  <name>
levamisole

>  <reference>
Tappin et al. (2016)

>  <speciation_state_pH7.4>
neutral

>  <substance_type>
antihelminthic drug

>  <smiles>
c1ccc([C@H]2CN3CCSC3=N2)cc1

>  <inchi>
InChI=1S/C11H12N2S/c1-2-4-9(5-3-1)10-8-13-6-7-14-11(13)12-10/h1-5,10H,6-8H2/t10-/m1/s1

>  <inchikey>
HLFSDGLLUJUHTE-SNVBAGLBSA-N

$$$$
