2,4-dinitrophenol
 OpenBabel07241711303D
CORINA evaluation license 3.49 0066  11.04.2013
 17 17  0  0  0  0  0  0  0  0999 V2000
    2.4148   -1.7623   -0.0194 O   0  0  0  0  0
    1.1599   -1.2407   -0.0135 C   0  0  0  0  0
    0.9791    0.1345   -0.0068 C   0  0  0  0  0
   -0.2978    0.6623   -0.0013 C   0  0  0  0  0
   -1.3947   -0.1791   -0.0021 C   0  0  0  0  0
   -1.2172   -1.5505   -0.0088 C   0  0  0  0  0
    0.0572   -2.0830   -0.0200 C   0  0  0  0  0
   -2.7616    0.3889    0.0048 N   0  0  0  0  0
   -2.9191    1.5967    0.0111 O   0  0  0  0  0
   -3.7288   -0.3514    0.0041 O   0  0  0  0  0
    2.1532    1.0360   -0.0050 N   0  0  0  0  0
    1.9938    2.2435    0.0009 O   0  0  0  0  0
    3.2786    0.5702   -0.0095 O   0  0  0  0  0
    2.7805   -1.9172    0.8623 H   0  0  0  0  0
   -0.4391    1.7330    0.0039 H   0  0  0  0  0
   -2.0757   -2.2057   -0.0090 H   0  0  0  0  0
    0.1954   -3.1541   -0.0256 H   0  0  0  0  0
  1  2  1  0  0  0
  1 14  1  0  0  0
  2  3  2  0  0  0
  2  7  1  0  0  0
  3  4  1  0  0  0
  3 11  1  0  0  0
  4  5  2  0  0  0
  4 15  1  0  0  0
  5  6  1  0  0  0
  5  8  1  0  0  0
  6  7  2  0  0  0
  6 16  1  0  0  0
  7 17  1  0  0  0
  8  9  1  0  0  0
  8 10  2  0  0  0
 11 12  1  0  0  0
 11 13  2  0  0  0
M  CHG  4   8   1   9  -1  11   1  12  -1
M  END
>  <likely_enzyme_classes>
hydride transferase

>  <activity>
-11.4

>  <molID>
mol000165

>  <name>
2,4-dinitrophenol

>  <reference>
Mackay handbook of physical-chemical properties

>  <speciation_state_pH7.4>
anionic

>  <substance_type>
chemical substance

>  <smiles>
O=[N+]([O-])c1ccc(O)c([N+](=O)[O-])c1

>  <inchi>
InChI=1S/C6H4N2O5/c9-6-2-1-4(7(10)11)3-5(6)8(12)13/h1-3,9H

>  <inchikey>
UFBJCMHMOXMLKC-UHFFFAOYSA-N

$$$$
