simazine
 OpenBabel07241711303D
CORINA evaluation license 3.49 0066  11.04.2013
 25 25  0  0  0  0  0  0  0  0999 V2000
    4.7784   -1.6162    0.0001 C   0  0  0  0  0
    3.6136   -0.6241   -0.0005 C   0  0  0  0  0
    2.3463   -1.3590   -0.0004 N   0  0  0  0  0
    1.1499   -0.6713   -0.0008 C   0  0  0  0  0
    0.0000   -1.3371   -0.0007 N   0  0  0  0  0
   -1.1498   -0.6714   -0.0006 C   0  0  0  0  0
   -2.3462   -1.3591   -0.0001 N   0  0  0  0  0
   -3.6136   -0.6243   -0.0000 C   0  0  0  0  0
   -4.7783   -1.6164    0.0007 C   0  0  0  0  0
   -1.1466    0.6594   -0.0007 N   0  0  0  0  0
   -0.0000    1.3195   -0.0008 C   0  0  0  0  0
   -0.0001    3.0555   -0.0003 Cl  0  0  0  0  0
    1.1465    0.6595    0.0042 N   0  0  0  0  0
    4.7217   -2.2426    0.8903 H   0  0  0  0  0
    4.7220   -2.2433   -0.8897 H   0  0  0  0  0
    5.7213   -1.0694   -0.0000 H   0  0  0  0  0
    3.6700    0.0030    0.8893 H   0  0  0  0  0
    3.6703    0.0023   -0.8907 H   0  0  0  0  0
    2.3481   -2.3290    0.0000 H   0  0  0  0  0
   -2.3480   -2.3291    0.0003 H   0  0  0  0  0
   -3.6699    0.0028    0.8897 H   0  0  0  0  0
   -3.6704    0.0021   -0.8902 H   0  0  0  0  0
   -4.7220   -2.2435   -0.8891 H   0  0  0  0  0
   -4.7215   -2.2428    0.8909 H   0  0  0  0  0
   -5.7213   -1.0697    0.0007 H   0  0  0  0  0
  1  2  1  0  0  0
  1 14  1  0  0  0
  1 15  1  0  0  0
  1 16  1  0  0  0
  2  3  1  0  0  0
  2 17  1  0  0  0
  2 18  1  0  0  0
  3  4  1  0  0  0
  3 19  1  0  0  0
  4  5  2  0  0  0
  4 13  1  0  0  0
  5  6  1  0  0  0
  6  7  1  0  0  0
  6 10  2  0  0  0
  7  8  1  0  0  0
  7 20  1  0  0  0
  8  9  1  0  0  0
  8 21  1  0  0  0
  8 22  1  0  0  0
  9 23  1  0  0  0
  9 24  1  0  0  0
  9 25  1  0  0  0
 10 11  1  0  0  0
 11 12  1  0  0  0
 11 13  2  0  0  0
M  END
>  <likely_enzyme_classes>
dehalogenase; monooxygenase

>  <activity>
-11.9

>  <molID>
mol000112

>  <name>
simazine

>  <reference>
Starner et al. (1999)

>  <speciation_state_pH7.4>
neutral

>  <substance_type>
herbicide

>  <smiles>
CCN=c1nc(Cl)[nH]c(=NCC)[nH]1

>  <inchi>
InChI=1S/C7H12ClN5/c1-3-9-6-11-5(8)12-7(13-6)10-4-2/h3-4H2,1-2H3,(H2,9,10,11,12,13)

>  <inchikey>
ODCWYMIRDDJXKW-UHFFFAOYSA-N

$$$$
