2-acetamido-fluorene
 OpenBabel07241711303D
CORINA evaluation license 3.49 0066  11.04.2013
 30 32  0  0  0  0  0  0  0  0999 V2000
    5.5966   -0.3356   -0.1384 C   0  0  0  0  0
    4.0903   -0.3772   -0.1568 C   0  0  0  0  0
    3.5158   -1.3381   -0.6235 O   0  0  0  0  0
    3.3815    0.6533    0.3453 N   0  0  0  0  0
    1.9871    0.6593    0.2414 C   0  0  0  0  0
    1.2778   -0.5327    0.3315 C   0  0  0  0  0
   -0.0959   -0.5259    0.2290 C   0  0  0  0  0
   -0.7814    0.6709    0.0352 C   0  0  0  0  0
   -0.0647    1.8667   -0.0540 C   0  0  0  0  0
    1.3086    1.8578    0.0537 C   0  0  0  0  0
   -2.2380    0.3987   -0.0405 C   0  0  0  0  0
   -3.3248    1.2555   -0.2236 C   0  0  0  0  0
   -4.6061    0.7453   -0.2578 C   0  0  0  0  0
   -4.8194   -0.6133   -0.1110 C   0  0  0  0  0
   -3.7467   -1.4686    0.0709 C   0  0  0  0  0
   -2.4629   -0.9677    0.1060 C   0  0  0  0  0
   -1.1203   -1.6328    0.2851 C   0  0  0  0  0
    5.9908   -1.2493   -0.5832 H   0  0  0  0  0
    5.9433    0.5255   -0.7096 H   0  0  0  0  0
    5.9452   -0.2530    0.8911 H   0  0  0  0  0
    3.8387    1.3909    0.7786 H   0  0  0  0  0
    1.8036   -1.4641    0.4814 H   0  0  0  0  0
   -0.5880    2.7994   -0.2043 H   0  0  0  0  0
    1.8602    2.7837   -0.0152 H   0  0  0  0  0
   -3.1627    2.3172   -0.3380 H   0  0  0  0  0
   -5.4460    1.4094   -0.3995 H   0  0  0  0  0
   -5.8246   -1.0073   -0.1379 H   0  0  0  0  0
   -3.9155   -2.5292    0.1853 H   0  0  0  0  0
   -0.9453   -2.3477   -0.5189 H   0  0  0  0  0
   -1.0765   -2.1356    1.2513 H   0  0  0  0  0
  1  2  1  0  0  0
  1 18  1  0  0  0
  1 19  1  0  0  0
  1 20  1  0  0  0
  2  3  2  0  0  0
  2  4  1  0  0  0
  4  5  1  0  0  0
  4 21  1  0  0  0
  5  6  2  0  0  0
  5 10  1  0  0  0
  6  7  1  0  0  0
  6 22  1  0  0  0
  7  8  2  0  0  0
  7 17  1  0  0  0
  8  9  1  0  0  0
  8 11  1  0  0  0
  9 10  2  0  0  0
  9 23  1  0  0  0
 10 24  1  0  0  0
 11 12  2  0  0  0
 11 16  1  0  0  0
 12 13  1  0  0  0
 12 25  1  0  0  0
 13 14  2  0  0  0
 13 26  1  0  0  0
 14 15  1  0  0  0
 14 27  1  0  0  0
 15 16  2  0  0  0
 15 28  1  0  0  0
 16 17  1  0  0  0
 17 29  1  0  0  0
 17 30  1  0  0  0
M  END
>  <likely_enzyme_classes>
dioxygenase; amidohydrolase

>  <activity>
-11.1

>  <molID>
mol000064

>  <name>
2-acetamido-fluorene

>  <reference>
Steen and Collete (1989); Book chapter: Biodegradation analysis in water systems (14.3.2), from Environmental Xenobiotics by Richardson M.

>  <speciation_state_pH7.4>
neutral

>  <substance_type>
hepatic carcinogen

>  <smiles>
CC(O)=Nc1ccc2c(c1)Cc1ccccc1-2

>  <inchi>
InChI=1S/C15H13NO/c1-10(17)16-13-6-7-15-12(9-13)8-11-4-2-3-5-14(11)15/h2-7,9H,8H2,1H3,(H,16,17)

>  <inchikey>
CZIHNRWJTSTCEX-UHFFFAOYSA-N

$$$$
