benzoic acid
 OpenBabel07241711303D
CORINA evaluation license 3.49 0066  11.04.2013
 15 15  0  0  0  0  0  0  0  0999 V2000
    2.3576    1.0677   -0.0012 O   0  0  0  0  0
    1.6471   -0.0769   -0.0004 C   0  0  0  0  0
    2.2206   -1.1477    0.0004 O   0  0  0  0  0
    0.1706   -0.0297   -0.0005 C   0  0  0  0  0
   -0.5689   -1.2141    0.0003 C   0  0  0  0  0
   -1.9474   -1.1628    0.0001 C   0  0  0  0  0
   -2.5974    0.0587   -0.0009 C   0  0  0  0  0
   -1.8708    1.2362   -0.0017 C   0  0  0  0  0
   -0.4918    1.1995    0.0043 C   0  0  0  0  0
    3.3211    0.9863   -0.0011 H   0  0  0  0  0
   -0.0628   -2.1682    0.0007 H   0  0  0  0  0
   -2.5206   -2.0781    0.0004 H   0  0  0  0  0
   -3.6768    0.0932   -0.0014 H   0  0  0  0  0
   -2.3844    2.1863   -0.0028 H   0  0  0  0  0
    0.0742    2.1193    0.0037 H   0  0  0  0  0
  1  2  1  0  0  0
  1 10  1  0  0  0
  2  3  2  0  0  0
  2  4  1  0  0  0
  4  5  2  0  0  0
  4  9  1  0  0  0
  5  6  1  0  0  0
  5 11  1  0  0  0
  6  7  2  0  0  0
  6 12  1  0  0  0
  7  8  1  0  0  0
  7 13  1  0  0  0
  8  9  2  0  0  0
  8 14  1  0  0  0
  9 15  1  0  0  0
M  END
>  <likely_enzyme_classes>
dioxygenase

>  <activity>
-9.6

>  <molID>
mol000075

>  <name>
benzoic acid

>  <reference>
Mackay handbook of physical-chemical properties; Pubchem

>  <speciation_state_pH7.4>
anionic

>  <substance_type>
chemical substance

>  <smiles>
O=C(O)c1ccccc1

>  <inchi>
InChI=1S/C7H6O2/c8-7(9)6-4-2-1-3-5-6/h1-5H,(H,8,9)

>  <inchikey>
WPYMKLBDIGXBTP-UHFFFAOYSA-N

$$$$
