caffeine
 OpenBabel07241711303D
CORINA evaluation license 3.49 0066  11.04.2013
 24 25  0  0  0  0  0  0  0  0999 V2000
    3.2614    1.1612   -0.0055 C   0  0  0  0  0
    2.2862    0.0680   -0.0028 N   0  0  0  0  0
    2.5608   -1.2510   -0.0001 C   0  0  0  0  0
    1.4446   -1.9342    0.0022 N   0  0  0  0  0
    0.4027   -1.0988    0.0012 C   0  0  0  0  0
    0.9114    0.1939    0.0035 C   0  0  0  0  0
    0.0163    1.2853    0.0030 C   0  0  0  0  0
    0.4379    2.4280    0.0046 O   0  0  0  0  0
   -1.3120    1.0479    0.0003 N   0  0  0  0  0
   -2.2466    2.1761   -0.0007 C   0  0  0  0  0
   -1.7906   -0.2082   -0.0019 C   0  0  0  0  0
   -2.9938   -0.3839   -0.0047 O   0  0  0  0  0
   -0.9714   -1.2767    0.0026 N   0  0  0  0  0
   -1.5337   -2.6294    0.0000 C   0  0  0  0  0
    3.5026    1.4305   -1.0339 H   0  0  0  0  0
    2.8396    2.0258    0.5070 H   0  0  0  0  0
    4.1678    0.8409    0.5082 H   0  0  0  0  0
    3.5520   -1.6796   -0.0003 H   0  0  0  0  0
   -2.4764    2.4566   -1.0286 H   0  0  0  0  0
   -3.1647    1.8878    0.5111 H   0  0  0  0  0
   -1.7940    3.0233    0.5145 H   0  0  0  0  0
   -2.6221   -2.5704   -0.0057 H   0  0  0  0  0
   -1.1941   -3.1624   -0.8880 H   0  0  0  0  0
   -1.2034   -3.1619    0.8919 H   0  0  0  0  0
  1  2  1  0  0  0
  1 15  1  0  0  0
  1 16  1  0  0  0
  1 17  1  0  0  0
  2  3  1  0  0  0
  2  6  1  0  0  0
  3  4  2  0  0  0
  3 18  1  0  0  0
  4  5  1  0  0  0
  5  6  2  0  0  0
  5 13  1  0  0  0
  6  7  1  0  0  0
  7  8  2  0  0  0
  7  9  1  0  0  0
  9 10  1  0  0  0
  9 11  1  0  0  0
 10 19  1  0  0  0
 10 20  1  0  0  0
 10 21  1  0  0  0
 11 12  2  0  0  0
 11 13  1  0  0  0
 13 14  1  0  0  0
 14 22  1  0  0  0
 14 23  1  0  0  0
 14 24  1  0  0  0
M  END
>  <likely_enzyme_classes>
demethylase; oxidase

>  <activity>
-11.8

>  <molID>
mol000142

>  <name>
caffeine

>  <reference>
Lam et al. (2004); Baena-Nogueras et al. (2017)

>  <speciation_state_pH7.4>
neutral

>  <substance_type>
central nervous system stimulant drug

>  <smiles>
Cn1cnc2c1c(=O)n(C)c(=O)n2C

>  <inchi>
InChI=1S/C8H10N4O2/c1-10-4-9-6-5(10)7(13)12(3)8(14)11(6)2/h4H,1-3H3

>  <inchikey>
RYYVLZVUVIJVGH-UHFFFAOYSA-N

$$$$
