Fenoprofen
 OpenBabel07241711303D
CORINA evaluation license 3.49 0066  11.04.2013
 32 33  0  0  0  0  0  0  0  0999 V2000
   -2.8519    0.8259    1.9634 C   0  0  0  0  0
   -2.1292    0.9277    0.6186 C   0  0  0  0  0
   -1.4243   -0.3721    0.3276 C   0  0  0  0  0
   -0.0535   -0.3909    0.1594 C   0  0  0  0  0
    0.5950   -1.5882   -0.1086 C   0  0  0  0  0
   -0.1358   -2.7634   -0.2069 C   0  0  0  0  0
   -1.5068   -2.7389   -0.0378 C   0  0  0  0  0
   -2.1498   -1.5457    0.2347 C   0  0  0  0  0
    1.9435   -1.6094   -0.2749 O   0  0  0  0  0
    2.6191   -0.4362   -0.1589 C   0  0  0  0  0
    3.1066   -0.0341    1.0765 C   0  0  0  0  0
    3.7930    1.1591    1.1917 C   0  0  0  0  0
    3.9946    1.9525    0.0773 C   0  0  0  0  0
    3.5099    1.5542   -1.1549 C   0  0  0  0  0
    2.8277    0.3591   -1.2766 C   0  0  0  0  0
   -3.1318    1.2102   -0.4704 C   0  0  0  0  0
   -3.2607    0.4356   -1.3887 O   0  0  0  0  0
   -3.8817    2.3224   -0.4202 O   0  0  0  0  0
   -3.3618    1.7660    2.1739 H   0  0  0  0  0
   -3.5821    0.0176    1.9231 H   0  0  0  0  0
   -2.1267    0.6216    2.7510 H   0  0  0  0  0
   -1.3990    1.7360    0.6589 H   0  0  0  0  0
    0.5131    0.5253    0.2361 H   0  0  0  0  0
    0.3665   -3.6964   -0.4157 H   0  0  0  0  0
   -2.0763   -3.6534   -0.1146 H   0  0  0  0  0
   -3.2215   -1.5289    0.3668 H   0  0  0  0  0
    2.9491   -0.6533    1.9472 H   0  0  0  0  0
    4.1723    1.4727    2.1530 H   0  0  0  0  0
    4.5312    2.8852    0.1696 H   0  0  0  0  0
    3.6683    2.1759   -2.0236 H   0  0  0  0  0
    2.4493    0.0484   -2.2392 H   0  0  0  0  0
   -4.5110    2.4605   -1.1414 H   0  0  0  0  0
  1  2  1  0  0  0
  1 19  1  0  0  0
  1 20  1  0  0  0
  1 21  1  0  0  0
  2  3  1  0  0  0
  2 16  1  0  0  0
  2 22  1  0  0  0
  3  4  2  0  0  0
  3  8  1  0  0  0
  4  5  1  0  0  0
  4 23  1  0  0  0
  5  6  2  0  0  0
  5  9  1  0  0  0
  6  7  1  0  0  0
  6 24  1  0  0  0
  7  8  2  0  0  0
  7 25  1  0  0  0
  8 26  1  0  0  0
  9 10  1  0  0  0
 10 11  2  0  0  0
 10 15  1  0  0  0
 11 12  1  0  0  0
 11 27  1  0  0  0
 12 13  2  0  0  0
 12 28  1  0  0  0
 13 14  1  0  0  0
 13 29  1  0  0  0
 14 15  2  0  0  0
 14 30  1  0  0  0
 15 31  1  0  0  0
 16 17  2  0  0  0
 16 18  1  0  0  0
 18 32  1  0  0  0
M  END
>  <likely_enzyme_classes>
dioxygenase

>  <activity>
-11.8

>  <molID>
mol000176

>  <name>
Fenoprofen

>  <reference>
Baena-Nogueras et al. (2017)

>  <speciation_state_pH7.4>
anionic

>  <substance_type>
nonsteroidal anti-inflammatory drug

>  <smiles>
CC(C(=O)O)c1cccc(Oc2ccccc2)c1

>  <inchi>
InChI=1S/C15H14O3/c1-11(15(16)17)12-6-5-9-14(10-12)18-13-7-3-2-4-8-13/h2-11H,1H3,(H,16,17)

>  <inchikey>
RDJGLLICXDHJDY-UHFFFAOYSA-N

$$$$
