pronamide
 OpenBabel07241711303D
CORINA evaluation license 3.49 0066  11.04.2013
 27 27  0  0  0  0  0  0  0  0999 V2000
    3.7805    1.1403   -1.2494 C   0  0  0  0  0
    3.5065    0.3009    0.0001 C   0  0  0  0  0
    3.7809    1.1409    1.2491 C   0  0  0  0  0
    2.1069   -0.1319    0.0005 N   0  0  0  0  0
    1.1183    0.7842    0.0004 C   0  0  0  0  0
    1.3880    1.9694    0.0001 O   0  0  0  0  0
   -0.2943    0.3474    0.0008 C   0  0  0  0  0
   -1.3201    1.2937    0.0007 C   0  0  0  0  0
   -2.6375    0.8796    0.0006 C   0  0  0  0  0
   -3.9149    2.0551    0.0005 Cl  0  0  0  0  0
   -2.9415   -0.4711   -0.0000 C   0  0  0  0  0
   -1.9282   -1.4144    0.0005 C   0  0  0  0  0
   -2.3192   -3.1058   -0.0002 Cl  0  0  0  0  0
   -0.6070   -1.0127   -0.0047 C   0  0  0  0  0
    4.3852   -0.8800    0.0003 C   0  0  0  0  0
    5.0861   -1.8219    0.0004 C   0  0  0  0  0
    4.8218    1.4623   -1.2496 H   0  0  0  0  0
    3.5850    0.5419   -2.1392 H   0  0  0  0  0
    3.1298    2.0148   -1.2495 H   0  0  0  0  0
    3.1302    2.0154    1.2490 H   0  0  0  0  0
    3.5857    0.5429    2.1393 H   0  0  0  0  0
    4.8223    1.4629    1.2489 H   0  0  0  0  0
    1.8917   -1.0777    0.0007 H   0  0  0  0  0
   -1.0842    2.3476    0.0012 H   0  0  0  0  0
   -3.9733   -0.7901   -0.0005 H   0  0  0  0  0
    0.1826   -1.7495   -0.0046 H   0  0  0  0  0
    5.7129   -2.6643    0.0005 H   0  0  0  0  0
  1  2  1  0  0  0
  1 17  1  0  0  0
  1 18  1  0  0  0
  1 19  1  0  0  0
  2  3  1  0  0  0
  2  4  1  0  0  0
  2 15  1  0  0  0
  3 20  1  0  0  0
  3 21  1  0  0  0
  3 22  1  0  0  0
  4  5  1  0  0  0
  4 23  1  0  0  0
  5  6  2  0  0  0
  5  7  1  0  0  0
  7  8  2  0  0  0
  7 14  1  0  0  0
  8  9  1  0  0  0
  8 24  1  0  0  0
  9 10  1  0  0  0
  9 11  2  0  0  0
 11 12  1  0  0  0
 11 25  1  0  0  0
 12 13  1  0  0  0
 12 14  2  0  0  0
 14 26  1  0  0  0
 15 16  3  0  0  0
 16 27  1  0  0  0
M  END
>  <likely_enzyme_classes>
amidohydrolase

>  <activity>
-12.9

>  <molID>
mol000155

>  <name>
pronamide

>  <reference>
Steen and Collete (1989); Book chapter: Biodegradation analysis in water systems (14.3.2), from Environmental Xenobiotics by Richardson M.

>  <speciation_state_pH7.4>
neutral

>  <substance_type>
herbicide

>  <smiles>
C#CC(C)(C)N=C(O)c1cc(Cl)cc(Cl)c1

>  <inchi>
InChI=1S/C12H11Cl2NO/c1-4-12(2,3)15-11(16)8-5-9(13)7-10(14)6-8/h1,5-7H,2-3H3,(H,15,16)

>  <inchikey>
PHNUZKMIPFFYSO-UHFFFAOYSA-N

$$$$
