3,3â-dichlorobenzidine
 OpenBabel07241711303D
CORINA evaluation license 3.49 0066  11.04.2013
 26 27  0  0  0  0  0  0  0  0999 V2000
    4.6649   -1.5323    0.0022 N   0  0  0  0  0
    3.3377   -1.0961    0.0013 C   0  0  0  0  0
    3.0542    0.2655    0.0002 C   0  0  0  0  0
    4.3494    1.4214   -0.0008 Cl  0  0  0  0  0
    1.7440    0.6979   -0.0007 C   0  0  0  0  0
    0.7047   -0.2311   -0.0004 C   0  0  0  0  0
    0.9919   -1.5954    0.0008 C   0  0  0  0  0
    2.3026   -2.0234   -0.0041 C   0  0  0  0  0
   -0.7047    0.2311   -0.0008 C   0  0  0  0  0
   -1.7440   -0.6979   -0.0005 C   0  0  0  0  0
   -3.0542   -0.2655   -0.0005 C   0  0  0  0  0
   -4.3494   -1.4214    0.0005 Cl  0  0  0  0  0
   -3.3377    1.0962   -0.0007 C   0  0  0  0  0
   -4.6649    1.5323   -0.0006 N   0  0  0  0  0
   -2.3025    2.0234   -0.0005 C   0  0  0  0  0
   -0.9919    1.5954    0.0043 C   0  0  0  0  0
    5.3879   -0.8857    0.0020 H   0  0  0  0  0
    4.8633   -2.4818    0.0071 H   0  0  0  0  0
    1.5237    1.7552   -0.0013 H   0  0  0  0  0
    0.1880   -2.3167    0.0014 H   0  0  0  0  0
    2.5250   -3.0803   -0.0032 H   0  0  0  0  0
   -1.5238   -1.7552   -0.0007 H   0  0  0  0  0
   -5.3879    0.8857   -0.0004 H   0  0  0  0  0
   -4.8633    2.4818   -0.0008 H   0  0  0  0  0
   -2.5250    3.0803   -0.0004 H   0  0  0  0  0
   -0.1880    2.3167    0.0044 H   0  0  0  0  0
  1  2  1  0  0  0
  1 17  1  0  0  0
  1 18  1  0  0  0
  2  3  2  0  0  0
  2  8  1  0  0  0
  3  4  1  0  0  0
  3  5  1  0  0  0
  5  6  2  0  0  0
  5 19  1  0  0  0
  6  7  1  0  0  0
  6  9  1  0  0  0
  7  8  2  0  0  0
  7 20  1  0  0  0
  8 21  1  0  0  0
  9 10  2  0  0  0
  9 16  1  0  0  0
 10 11  1  0  0  0
 10 22  1  0  0  0
 11 12  1  0  0  0
 11 13  2  0  0  0
 13 14  1  0  0  0
 13 15  1  0  0  0
 14 23  1  0  0  0
 14 24  1  0  0  0
 15 16  2  0  0  0
 15 25  1  0  0  0
 16 26  1  0  0  0
M  END
>  <likely_enzyme_classes>
dioxygenase

>  <activity>
-10.5

>  <molID>
mol000081

>  <name>
3,3â-dichlorobenzidine

>  <reference>
Capel and Larson (1995); Nyman et al. (1997); Pubchem; WHO (1998)

>  <speciation_state_pH7.4>
neutral

>  <substance_type>
chemical substance

>  <smiles>
Nc1ccc(-c2ccc(N)c(Cl)c2)cc1Cl

>  <inchi>
InChI=1S/C12H10Cl2N2/c13-9-5-7(1-3-11(9)15)8-2-4-12(16)10(14)6-8/h1-6H,15-16H2

>  <inchikey>
HUWXDEQWWKGHRV-UHFFFAOYSA-N

$$$$
