di-n-propyl phthalate
 OpenBabel07241711303D
CORINA evaluation license 3.49 0066  11.04.2013
 36 36  0  0  0  0  0  0  0  0999 V2000
    5.2900    2.7831    0.3971 C   0  0  0  0  0
    4.5236    1.5142    0.7757 C   0  0  0  0  0
    3.3204    1.3482   -0.1547 C   0  0  0  0  0
    2.5931    0.1440    0.2047 O   0  0  0  0  0
    1.4983   -0.1493   -0.5232 C   0  0  0  0  0
    1.1604    0.5808   -1.4330 O   0  0  0  0  0
    0.7079   -1.3600   -0.2144 C   0  0  0  0  0
    1.3254   -2.6068   -0.1692 C   0  0  0  0  0
    0.5821   -3.7362    0.1199 C   0  0  0  0  0
   -0.7756   -3.6371    0.3651 C   0  0  0  0  0
   -1.4062   -2.4072    0.3245 C   0  0  0  0  0
   -0.6730   -1.2583    0.0413 C   0  0  0  0  0
   -1.3425    0.0592   -0.0028 C   0  0  0  0  0
   -0.6840    1.0707   -0.1375 O   0  0  0  0  0
   -2.6828    0.1376    0.1064 O   0  0  0  0  0
   -3.2720    1.4637    0.0547 C   0  0  0  0  0
   -4.7916    1.3524    0.1939 C   0  0  0  0  0
   -5.4124    2.7497    0.1395 C   0  0  0  0  0
    5.6358    2.7047   -0.6336 H   0  0  0  0  0
    4.6329    3.6473    0.4951 H   0  0  0  0  0
    6.1471    2.9013    1.0599 H   0  0  0  0  0
    5.1806    0.6500    0.6777 H   0  0  0  0  0
    4.1777    1.5926    1.8064 H   0  0  0  0  0
    2.6634    2.2124   -0.0567 H   0  0  0  0  0
    3.6663    1.2699   -1.1854 H   0  0  0  0  0
    2.3850   -2.6919   -0.3602 H   0  0  0  0  0
    1.0645   -4.7019    0.1542 H   0  0  0  0  0
   -1.3468   -4.5259    0.5892 H   0  0  0  0  0
   -2.4667   -2.3375    0.5166 H   0  0  0  0  0
   -2.8758    2.0693    0.8698 H   0  0  0  0  0
   -3.0278    1.9328   -0.8984 H   0  0  0  0  0
   -5.1877    0.7468   -0.6212 H   0  0  0  0  0
   -5.0357    0.8833    1.1470 H   0  0  0  0  0
   -6.4949    2.6705    0.2387 H   0  0  0  0  0
   -5.0162    3.3553    0.9545 H   0  0  0  0  0
   -5.1682    3.2189   -0.8137 H   0  0  0  0  0
  1  2  1  0  0  0
  1 19  1  0  0  0
  1 20  1  0  0  0
  1 21  1  0  0  0
  2  3  1  0  0  0
  2 22  1  0  0  0
  2 23  1  0  0  0
  3  4  1  0  0  0
  3 24  1  0  0  0
  3 25  1  0  0  0
  4  5  1  0  0  0
  5  6  2  0  0  0
  5  7  1  0  0  0
  7  8  2  0  0  0
  7 12  1  0  0  0
  8  9  1  0  0  0
  8 26  1  0  0  0
  9 10  2  0  0  0
  9 27  1  0  0  0
 10 11  1  0  0  0
 10 28  1  0  0  0
 11 12  2  0  0  0
 11 29  1  0  0  0
 12 13  1  0  0  0
 13 14  2  0  0  0
 13 15  1  0  0  0
 15 16  1  0  0  0
 16 17  1  0  0  0
 16 30  1  0  0  0
 16 31  1  0  0  0
 17 18  1  0  0  0
 17 32  1  0  0  0
 17 33  1  0  0  0
 18 34  1  0  0  0
 18 35  1  0  0  0
 18 36  1  0  0  0
M  END
>  <likely_enzyme_classes>
esterase

>  <activity>
-8.8

>  <molID>
mol000088

>  <name>
di-n-propyl phthalate

>  <reference>
Mackay handbook of physical-chemical properties

>  <speciation_state_pH7.4>
neutral

>  <substance_type>
chemical substance

>  <smiles>
CCCOC(=O)c1ccccc1C(=O)OCCC

>  <inchi>
InChI=1S/C14H18O4/c1-3-9-17-13(15)11-7-5-6-8-12(11)14(16)18-10-4-2/h5-8H,3-4,9-10H2,1-2H3

>  <inchikey>
MQHNKCZKNAJROC-UHFFFAOYSA-N

$$$$
