carbon tetrachloride
 OpenBabel07241711303D
CORINA evaluation license 3.49 0066  11.04.2013
  5  4  0  0  0  0  0  0  0  0999 V2000
    0.0000   -1.4721   -1.0410 Cl  0  0  0  0  0
   -0.0000   -0.0000    0.0000 C   0  0  0  0  0
    0.0000    1.4721   -1.0410 Cl  0  0  0  0  0
   -1.4722    0.0000    1.0409 Cl  0  0  0  0  0
    1.4721   -0.0000    1.0410 Cl  0  0  0  0  0
  1  2  1  0  0  0
  2  3  1  0  0  0
  2  4  1  0  0  0
  2  5  1  0  0  0
M  END
>  <likely_enzyme_classes>
dehalogenase

>  <activity>
-11.5

>  <molID>
mol000105

>  <name>
carbon tetrachloride

>  <reference>
Capel and Larson (1995)

>  <speciation_state_pH7.4>
neutral

>  <substance_type>
chemical substance

>  <smiles>
ClC(Cl)(Cl)Cl

>  <inchi>
InChI=1S/CCl4/c2-1(3,4)5

>  <inchikey>
VZGDMQKNWNREIO-UHFFFAOYSA-N

$$$$
