3-pentanone
 OpenBabel07241711303D
CORINA evaluation license 3.49 0066  11.04.2013
 16 15  0  0  0  0  0  0  0  0999 V2000
    2.4680   -0.1905   -0.0001 C   0  0  0  0  0
    1.3051    0.8037   -0.0000 C   0  0  0  0  0
   -0.0000    0.0502   -0.0000 C   0  0  0  0  0
    0.0000   -1.1574    0.0000 O   0  0  0  0  0
   -1.3051    0.8037    0.0000 C   0  0  0  0  0
   -2.4680   -0.1906    0.0001 C   0  0  0  0  0
    2.4103   -0.8171    0.8899 H   0  0  0  0  0
    2.4103   -0.8171   -0.8901 H   0  0  0  0  0
    3.4120    0.3545   -0.0001 H   0  0  0  0  0
    1.3628    1.4304    0.8899 H   0  0  0  0  0
    1.3628    1.4304   -0.8900 H   0  0  0  0  0
   -1.3628    1.4303    0.8900 H   0  0  0  0  0
   -1.3629    1.4303   -0.8899 H   0  0  0  0  0
   -2.4103   -0.8172   -0.8899 H   0  0  0  0  0
   -2.4102   -0.8172    0.8901 H   0  0  0  0  0
   -3.4120    0.3544    0.0001 H   0  0  0  0  0
  1  2  1  0  0  0
  1  7  1  0  0  0
  1  8  1  0  0  0
  1  9  1  0  0  0
  2  3  1  0  0  0
  2 10  1  0  0  0
  2 11  1  0  0  0
  3  4  2  0  0  0
  3  5  1  0  0  0
  5  6  1  0  0  0
  5 12  1  0  0  0
  5 13  1  0  0  0
  6 14  1  0  0  0
  6 15  1  0  0  0
  6 16  1  0  0  0
M  END
>  <likely_enzyme_classes>
monooxygenase

>  <activity>
-10.1

>  <molID>
mol000009

>  <name>
3-pentanone

>  <reference>
Shimp & Pfaender (1985); Aronson (1999); Palumbo et al. (1988)

>  <speciation_state_pH7.4>
neutral

>  <substance_type>
chemical substance

>  <smiles>
CCC(=O)CC

>  <inchi>
InChI=1S/C5H10O/c1-3-5(6)4-2/h3-4H2,1-2H3

>  <inchikey>
FDPIMTJIUBPUKL-UHFFFAOYSA-N

$$$$
