atorvastatin
 OpenBabel07241711303D
CORINA evaluation license 3.49 0066  11.04.2013
 76 79  0  0  0  0  0  0  0  0999 V2000
    0.8356    3.3301    0.5031 C   0  0  0  0  0
    0.6238    2.5343   -0.7864 C   0  0  0  0  0
    1.6197    3.0075   -1.8471 C   0  0  0  0  0
    0.8396    1.0681   -0.5131 C   0  0  0  0  0
    1.9987    0.5115   -0.0495 C   0  0  0  0  0
    3.2494    1.2172    0.2711 C   0  0  0  0  0
    3.4355    1.6452    1.3944 O   0  0  0  0  0
    4.1888    1.3893   -0.6799 N   0  0  0  0  0
    5.3347    2.1418   -0.4028 C   0  0  0  0  0
    5.9065    2.0987    0.8622 C   0  0  0  0  0
    7.0383    2.8426    1.1324 C   0  0  0  0  0
    7.6022    3.6298    0.1452 C   0  0  0  0  0
    7.0353    3.6750   -1.1153 C   0  0  0  0  0
    5.9065    2.9294   -1.3936 C   0  0  0  0  0
    1.7470   -0.9342    0.0653 C   0  0  0  0  0
    0.4412   -1.1226   -0.3448 C   0  0  0  0  0
   -0.0808    0.0995   -0.6815 N   0  0  0  0  0
   -1.4460    0.3198   -1.1651 C   0  0  0  0  0
   -2.3496    0.6940    0.0115 C   0  0  0  0  0
   -3.7962    0.8101   -0.4732 C   0  0  0  0  0
   -4.2561   -0.4701   -0.9109 O   0  0  0  0  0
   -4.6801    1.3049    0.6734 C   0  0  0  0  0
   -6.1010    1.5401    0.1571 C   0  0  0  0  0
   -6.6720    0.2950   -0.2502 O   0  0  0  0  0
   -6.9534    2.1522    1.2705 C   0  0  0  0  0
   -8.3163    2.4971    0.7277 C   0  0  0  0  0
   -9.2385    3.0499    1.5312 O   0  0  0  0  0
   -8.5789    2.2761   -0.4308 O   0  0  0  0  0
   -0.2702   -2.4152   -0.4054 C   0  0  0  0  0
   -0.3510   -3.2247    0.7298 C   0  0  0  0  0
   -1.0171   -4.4306    0.6675 C   0  0  0  0  0
   -1.6056   -4.8397   -0.5187 C   0  0  0  0  0
   -2.2572   -6.0219   -0.5738 F   0  0  0  0  0
   -1.5286   -4.0406   -1.6484 C   0  0  0  0  0
   -0.8698   -2.8302   -1.5965 C   0  0  0  0  0
    2.6971   -1.9723    0.5249 C   0  0  0  0  0
    3.1425   -1.9781    1.8470 C   0  0  0  0  0
    4.0277   -2.9485    2.2694 C   0  0  0  0  0
    4.4735   -3.9145    1.3849 C   0  0  0  0  0
    4.0354   -3.9141    0.0725 C   0  0  0  0  0
    3.1462   -2.9522   -0.3607 C   0  0  0  0  0
    0.6794    4.3906    0.3054 H   0  0  0  0  0
    0.1260    2.9930    1.2587 H   0  0  0  0  0
    1.8522    3.1736    0.8638 H   0  0  0  0  0
   -0.3929    2.6909   -1.1471 H   0  0  0  0  0
    2.6364    2.8510   -1.4864 H   0  0  0  0  0
    1.4688    2.4406   -2.7658 H   0  0  0  0  0
    1.4636    4.0680   -2.0448 H   0  0  0  0  0
    4.0701    0.9914   -1.5565 H   0  0  0  0  0
    5.4664    1.4844    1.6337 H   0  0  0  0  0
    7.4833    2.8098    2.1159 H   0  0  0  0  0
    8.4870    4.2109    0.3591 H   0  0  0  0  0
    7.4779    4.2910   -1.8841 H   0  0  0  0  0
    5.4644    2.9648   -2.3783 H   0  0  0  0  0
   -1.4466    1.1289   -1.8954 H   0  0  0  0  0
   -1.8174   -0.5921   -1.6328 H   0  0  0  0  0
   -2.2845   -0.0770    0.7792 H   0  0  0  0  0
   -2.0280    1.6489    0.4272 H   0  0  0  0  0
   -3.8462    1.5168   -1.3016 H   0  0  0  0  0
   -4.2392   -1.1502   -0.2236 H   0  0  0  0  0
   -4.7006    0.5564    1.4655 H   0  0  0  0  0
   -4.2770    2.2385    1.0660 H   0  0  0  0  0
   -6.0705    2.2213   -0.6933 H   0  0  0  0  0
   -6.7306   -0.3611    0.4577 H   0  0  0  0  0
   -7.0575    1.4348    2.0845 H   0  0  0  0  0
   -6.4709    3.0561    1.6422 H   0  0  0  0  0
  -10.0981    3.2536    1.1379 H   0  0  0  0  0
    0.1075   -2.9070    1.6546 H   0  0  0  0  0
   -1.0799   -5.0575    1.5446 H   0  0  0  0  0
   -1.9888   -4.3646   -2.5701 H   0  0  0  0  0
   -0.8104   -2.2083   -2.4774 H   0  0  0  0  0
    2.7955   -1.2243    2.5383 H   0  0  0  0  0
    4.3736   -2.9539    3.2925 H   0  0  0  0  0
    5.1666   -4.6718    1.7202 H   0  0  0  0  0
    4.3871   -4.6708   -0.6131 H   0  0  0  0  0
    2.8047   -2.9532   -1.3853 H   0  0  0  0  0
  1  2  1  0  0  0
  1 42  1  0  0  0
  1 43  1  0  0  0
  1 44  1  0  0  0
  2  3  1  0  0  0
  2  4  1  0  0  0
  2 45  1  0  0  0
  3 46  1  0  0  0
  3 47  1  0  0  0
  3 48  1  0  0  0
  4  5  2  0  0  0
  4 17  1  0  0  0
  5  6  1  0  0  0
  5 15  1  0  0  0
  6  7  2  0  0  0
  6  8  1  0  0  0
  8  9  1  0  0  0
  8 49  1  0  0  0
  9 10  2  0  0  0
  9 14  1  0  0  0
 10 11  1  0  0  0
 10 50  1  0  0  0
 11 12  2  0  0  0
 11 51  1  0  0  0
 12 13  1  0  0  0
 12 52  1  0  0  0
 13 14  2  0  0  0
 13 53  1  0  0  0
 14 54  1  0  0  0
 15 16  2  0  0  0
 15 36  1  0  0  0
 16 17  1  0  0  0
 16 29  1  0  0  0
 17 18  1  0  0  0
 18 19  1  0  0  0
 18 55  1  0  0  0
 18 56  1  0  0  0
 19 20  1  0  0  0
 19 57  1  0  0  0
 19 58  1  0  0  0
 20 21  1  0  0  0
 20 22  1  0  0  0
 20 59  1  0  0  0
 21 60  1  0  0  0
 22 23  1  0  0  0
 22 61  1  0  0  0
 22 62  1  0  0  0
 23 24  1  0  0  0
 23 25  1  0  0  0
 23 63  1  0  0  0
 24 64  1  0  0  0
 25 26  1  0  0  0
 25 65  1  0  0  0
 25 66  1  0  0  0
 26 27  1  0  0  0
 26 28  2  0  0  0
 27 67  1  0  0  0
 29 30  2  0  0  0
 29 35  1  0  0  0
 30 31  1  0  0  0
 30 68  1  0  0  0
 31 32  2  0  0  0
 31 69  1  0  0  0
 32 33  1  0  0  0
 32 34  1  0  0  0
 34 35  2  0  0  0
 34 70  1  0  0  0
 35 71  1  0  0  0
 36 37  2  0  0  0
 36 41  1  0  0  0
 37 38  1  0  0  0
 37 72  1  0  0  0
 38 39  2  0  0  0
 38 73  1  0  0  0
 39 40  1  0  0  0
 39 74  1  0  0  0
 40 41  2  0  0  0
 40 75  1  0  0  0
 41 76  1  0  0  0
M  END
>  <likely_enzyme_classes>
amine dehydrogenase; dioxygenase; amidohydrolase

>  <activity>
-11.8

>  <molID>
mol000078

>  <name>
atorvastatin

>  <reference>
Lam et al. (2004)

>  <speciation_state_pH7.4>
anionic

>  <substance_type>
lipid-lowering drug

>  <smiles>
CC(C)c1c(C(O)=Nc2ccccc2)c(-c2ccccc2)c(-c2ccc(F)cc2)n1CC[C@@H](O)C[C@@H](O)CC(=O)O

>  <inchi>
InChI=1S/C33H35FN2O5/c1-21(2)31-30(33(41)35-25-11-7-4-8-12-25)29(22-9-5-3-6-10-22)32(23-13-15-24(34)16-14-23)36(31)18-17-26(37)19-27(38)20-28(39)40/h3-16,21,26-27,37-38H,17-20H2,1-2H3,(H,35,41)(H,39,40)/t26-,27-/m1/s1

>  <inchikey>
XUKUURHRXDUEBC-KAYWLYCHSA-N

$$$$
