1-butylimidazolium L-lactate
 OpenBabel07241711303D
CORINA evaluation license 3.49 0066  11.04.2013
 21 21  0  0  0  0  0  0  0  0999 V2000
    3.9483   -0.0231   -0.7462 C   0  0  0  0  0
    2.9218    0.0057    0.3879 C   0  0  0  0  0
    1.5100   -0.0087   -0.2015 C   0  0  0  0  0
    0.4835    0.0201    0.9326 C   0  0  0  0  0
   -0.8684    0.0064    0.3682 N   0  0  0  0  0
   -1.6182   -1.1027    0.0829 C   0  0  0  0  0
   -2.7889   -0.6634   -0.4173 C   0  0  0  0  0
   -2.7548    0.6773   -0.4368 N   0  0  0  0  0
   -1.6097    1.0856    0.0377 C   0  0  0  0  0
    3.8113    0.8513   -1.3825 H   0  0  0  0  0
    4.9541   -0.0129   -0.3263 H   0  0  0  0  0
    3.8108   -0.9281   -1.3379 H   0  0  0  0  0
    3.0588   -0.8687    1.0242 H   0  0  0  0  0
    3.0593    0.9107    0.9796 H   0  0  0  0  0
    1.3730    0.8657   -0.8378 H   0  0  0  0  0
    1.3724   -0.9137   -0.7932 H   0  0  0  0  0
    0.6204   -0.8543    1.5689 H   0  0  0  0  0
    0.6210    0.9251    1.5243 H   0  0  0  0  0
   -1.3268   -2.1322    0.2300 H   0  0  0  0  0
   -3.6111   -1.2822   -0.7452 H   0  0  0  0  0
   -1.3029    2.1159    0.1418 H   0  0  0  0  0
  1  2  1  0  0  0
  1 10  1  0  0  0
  1 11  1  0  0  0
  1 12  1  0  0  0
  2  3  1  0  0  0
  2 13  1  0  0  0
  2 14  1  0  0  0
  3  4  1  0  0  0
  3 15  1  0  0  0
  3 16  1  0  0  0
  4  5  1  0  0  0
  4 17  1  0  0  0
  4 18  1  0  0  0
  5  6  1  0  0  0
  5  9  1  0  0  0
  6  7  2  0  0  0
  6 19  1  0  0  0
  7  8  1  0  0  0
  7 20  1  0  0  0
  8  9  2  0  0  0
  9 21  1  0  0  0
M  END
>  <likely_enzyme_classes>
amine dehydrogenase

>  <activity>
-12.1

>  <molID>
mol000148

>  <name>
1-butylimidazolium L-lactate

>  <reference>
GARBACZEWSKA and JarosĊaw HUPKO (2007)

>  <speciation_state_pH7.4>
cationic

>  <substance_type>
ionic liquid

>  <smiles>
CCCCn1ccnc1

>  <inchi>
InChI=1S/C7H12N2/c1-2-3-5-9-6-4-8-7-9/h4,6-7H,2-3,5H2,1H3

>  <inchikey>
MCMFEZDRQOJKMN-UHFFFAOYSA-N

$$$$
