2,6-dinitrotoluene
 OpenBabel07241711303D
CORINA evaluation license 3.49 0066  11.04.2013
 19 19  0  0  0  0  0  0  0  0999 V2000
    0.0003    1.8416    0.0373 C   0  0  0  0  0
    0.0001    0.3349    0.0051 C   0  0  0  0  0
    1.1971   -0.3563   -0.0089 C   0  0  0  0  0
    1.1969   -1.7383   -0.0385 C   0  0  0  0  0
   -0.0004   -2.4291   -0.0537 C   0  0  0  0  0
   -1.1974   -1.7379   -0.0388 C   0  0  0  0  0
   -1.1972   -0.3560   -0.0048 C   0  0  0  0  0
   -2.4790    0.3842    0.0111 N   0  0  0  0  0
   -3.5315   -0.2225    0.0990 O   0  0  0  0  0
   -2.4812    1.5999   -0.0637 O   0  0  0  0  0
    2.4791    0.3834    0.0074 N   0  0  0  0  0
    3.5296   -0.2213    0.1268 O   0  0  0  0  0
    2.4835    1.5968   -0.0986 O   0  0  0  0  0
   -0.0598    2.2268   -0.9806 H   0  0  0  0  0
   -0.8580    2.1929    0.6100 H   0  0  0  0  0
    0.9189    2.1948    0.5058 H   0  0  0  0  0
    2.1321   -2.2784   -0.0501 H   0  0  0  0  0
   -0.0006   -3.5089   -0.0775 H   0  0  0  0  0
   -2.1328   -2.2776   -0.0510 H   0  0  0  0  0
  1  2  1  0  0  0
  1 14  1  0  0  0
  1 15  1  0  0  0
  1 16  1  0  0  0
  2  3  2  0  0  0
  2  7  1  0  0  0
  3  4  1  0  0  0
  3 11  1  0  0  0
  4  5  2  0  0  0
  4 17  1  0  0  0
  5  6  1  0  0  0
  5 18  1  0  0  0
  6  7  2  0  0  0
  6 19  1  0  0  0
  7  8  1  0  0  0
  8  9  1  0  0  0
  8 10  2  0  0  0
 11 12  1  0  0  0
 11 13  2  0  0  0
M  CHG  4   8   1   9  -1  11   1  12  -1
M  END
>  <likely_enzyme_classes>
dioxygenase; nitroreductase

>  <activity>
-11.2

>  <molID>
mol000063

>  <name>
2,6-dinitrotoluene

>  <reference>
Howard: Handbook of Environmental Degradation Rates

>  <speciation_state_pH7.4>
neutral

>  <substance_type>
chemical substance

>  <smiles>
Cc1c([N+](=O)[O-])cccc1[N+](=O)[O-]

>  <inchi>
InChI=1S/C7H6N2O4/c1-5-6(8(10)11)3-2-4-7(5)9(12)13/h2-4H,1H3

>  <inchikey>
XTRDKALNCIHHNI-UHFFFAOYSA-N

$$$$
