Ciprofloxacin
 OpenBabel07241711303D
CORINA evaluation license 3.49 0066  11.04.2013
 42 45  0  0  0  0  0  0  0  0999 V2000
   -2.2564   -3.7225    0.3196 C   0  0  0  0  0
   -1.8280   -3.5762   -1.1419 C   0  0  0  0  0
   -1.1730   -2.7120   -0.0625 C   0  0  0  0  0
   -1.5293   -1.2915   -0.0248 N   0  0  0  0  0
   -2.8237   -0.9567    0.0573 C   0  0  0  0  0
   -3.2416    0.3577    0.0976 C   0  0  0  0  0
   -2.2316    1.4279    0.0492 C   0  0  0  0  0
   -2.5507    2.6039    0.0823 O   0  0  0  0  0
   -0.8202    1.0185   -0.0404 C   0  0  0  0  0
    0.2036    1.9675   -0.0915 C   0  0  0  0  0
    1.5046    1.5590   -0.1748 C   0  0  0  0  0
    1.8151    0.1971   -0.2096 C   0  0  0  0  0
    0.8101   -0.7556   -0.1601 C   0  0  0  0  0
   -0.5176   -0.3553   -0.0696 C   0  0  0  0  0
    3.1455   -0.2060   -0.2950 N   0  0  0  0  0
    3.5219   -1.0289    0.8629 C   0  0  0  0  0
    4.9626   -1.5162    0.6923 C   0  0  0  0  0
    5.8567   -0.3574    0.5605 N   0  0  0  0  0
    5.4803    0.4655   -0.5974 C   0  0  0  0  0
    4.0395    0.9528   -0.4269 C   0  0  0  0  0
    2.4954    2.4760   -0.2243 F   0  0  0  0  0
   -4.6716    0.6840    0.1869 C   0  0  0  0  0
   -5.4972   -0.2074    0.2259 O   0  0  0  0  0
   -5.0679    1.9720    0.2256 O   0  0  0  0  0
   -3.2343   -3.3304    0.5990 H   0  0  0  0  0
   -1.9417   -4.6220    0.8487 H   0  0  0  0  0
   -1.2313   -4.3794   -1.5743 H   0  0  0  0  0
   -2.5240   -3.0879   -1.8240 H   0  0  0  0  0
   -0.1453   -2.9465    0.2149 H   0  0  0  0  0
   -3.5648   -1.7416    0.0929 H   0  0  0  0  0
   -0.0327    3.0210   -0.0656 H   0  0  0  0  0
    1.0582   -1.8063   -0.1882 H   0  0  0  0  0
    3.4447   -0.4334    1.7727 H   0  0  0  0  0
    2.8534   -1.8871    0.9319 H   0  0  0  0  0
    5.2537   -2.1028    1.5637 H   0  0  0  0  0
    5.0339   -2.1342   -0.2027 H   0  0  0  0  0
    5.8642    0.1916    1.4071 H   0  0  0  0  0
    6.1487    1.3237   -0.6664 H   0  0  0  0  0
    5.5574   -0.1300   -1.5072 H   0  0  0  0  0
    3.7485    1.5394   -1.2983 H   0  0  0  0  0
    3.9682    1.5708    0.4682 H   0  0  0  0  0
   -6.0189    2.1371    0.2843 H   0  0  0  0  0
  1  2  1  0  0  0
  1  3  1  0  0  0
  1 25  1  0  0  0
  1 26  1  0  0  0
  2  3  1  0  0  0
  2 27  1  0  0  0
  2 28  1  0  0  0
  3  4  1  0  0  0
  3 29  1  0  0  0
  4  5  1  0  0  0
  4 14  1  0  0  0
  5  6  2  0  0  0
  5 30  1  0  0  0
  6  7  1  0  0  0
  6 22  1  0  0  0
  7  8  2  0  0  0
  7  9  1  0  0  0
  9 10  2  0  0  0
  9 14  1  0  0  0
 10 11  1  0  0  0
 10 31  1  0  0  0
 11 12  2  0  0  0
 11 21  1  0  0  0
 12 13  1  0  0  0
 12 15  1  0  0  0
 13 14  2  0  0  0
 13 32  1  0  0  0
 15 16  1  0  0  0
 15 20  1  0  0  0
 16 17  1  0  0  0
 16 33  1  0  0  0
 16 34  1  0  0  0
 17 18  1  0  0  0
 17 35  1  0  0  0
 17 36  1  0  0  0
 18 19  1  0  0  0
 18 37  1  0  0  0
 19 20  1  0  0  0
 19 38  1  0  0  0
 19 39  1  0  0  0
 20 40  1  0  0  0
 20 41  1  0  0  0
 22 23  2  0  0  0
 22 24  1  0  0  0
 24 42  1  0  0  0
M  END
>  <likely_enzyme_classes>
amine dehydrogenase

>  <activity>
-10.7

>  <molID>
mol000197

>  <name>
Ciprofloxacin

>  <reference>
Baena-Nogueras et al. (2017)

>  <speciation_state_pH7.4>
zwitterionic

>  <substance_type>
antibacterial drug

>  <smiles>
O=C(O)c1cn(C2CC2)c2cc(N3CCNCC3)c(F)cc2c1=O

>  <inchi>
InChI=1S/C17H18FN3O3/c18-13-7-11-14(8-15(13)20-5-3-19-4-6-20)21(10-1-2-10)9-12(16(11)22)17(23)24/h7-10,19H,1-6H2,(H,23,24)

>  <inchikey>
MYSWGUAQZAJSOK-UHFFFAOYSA-N

$$$$
