crizotinib
 OpenBabel07241711303D
CORINA evaluation license 3.49 0066  11.04.2013
 52 55  0  0  0  0  0  0  0  0999 V2000
   -2.3875   -0.3308   -0.4499 C   0  0  0  0  0
   -2.1973   -0.4306   -1.9647 C   0  0  0  0  0
   -2.1599    1.0156   -0.0288 O   0  0  0  0  0
   -0.8723    1.3749    0.2218 C   0  0  0  0  0
    0.1648    0.4948   -0.0377 C   0  0  0  0  0
    1.4726    0.9094    0.2365 C   0  0  0  0  0
    1.6846    2.1814    0.7563 C   0  0  0  0  0
    0.6711    2.9928    0.9907 N   0  0  0  0  0
   -0.5782    2.6384    0.7389 C   0  0  0  0  0
   -1.6136    3.5315    1.0039 N   0  0  0  0  0
    2.6195    0.0024   -0.0238 C   0  0  0  0  0
    3.9357    0.2832    0.1984 C   0  0  0  0  0
    4.6515   -0.7999   -0.1679 N   0  0  0  0  0
    3.7609   -1.7772   -0.6285 N   0  0  0  0  0
    2.5451   -1.3061   -0.5392 C   0  0  0  0  0
    6.1089   -0.9309   -0.0965 C   0  0  0  0  0
    6.7386   -0.3348   -1.3585 C   0  0  0  0  0
    8.2629   -0.4194   -1.2509 C   0  0  0  0  0
    8.7126    0.3174   -0.0629 N   0  0  0  0  0
    8.1583   -0.2663    1.1653 C   0  0  0  0  0
    6.6309   -0.1771    1.1298 C   0  0  0  0  0
   -3.7937   -0.7381   -0.0923 C   0  0  0  0  0
   -4.0303   -1.9715    0.4873 C   0  0  0  0  0
   -2.7071   -3.0503    0.8020 Cl  0  0  0  0  0
   -5.3211   -2.3458    0.8168 C   0  0  0  0  0
   -6.3751   -1.4879    0.5667 C   0  0  0  0  0
   -6.1401   -0.2532   -0.0137 C   0  0  0  0  0
   -7.1703    0.5859   -0.2580 F   0  0  0  0  0
   -4.8470    0.1239   -0.3384 C   0  0  0  0  0
   -4.5506    1.6720   -1.0658 Cl  0  0  0  0  0
   -1.6796   -0.9923    0.0496 H   0  0  0  0  0
   -2.3709   -1.4576   -2.2859 H   0  0  0  0  0
   -2.9052    0.2308   -2.4641 H   0  0  0  0  0
   -1.1802   -0.1361   -2.2233 H   0  0  0  0  0
   -0.0310   -0.4876   -0.4415 H   0  0  0  0  0
    2.6911    2.5090    0.9711 H   0  0  0  0  0
   -1.4165    4.4074    1.3710 H   0  0  0  0  0
   -2.5318    3.2775    0.8215 H   0  0  0  0  0
    4.3328    1.2058    0.5953 H   0  0  0  0  0
    1.6413   -1.8267   -0.8192 H   0  0  0  0  0
    6.3765   -1.9847   -0.0187 H   0  0  0  0  0
    6.4038   -0.8948   -2.2316 H   0  0  0  0  0
    6.4381    0.7083   -1.4573 H   0  0  0  0  0
    8.5636   -1.4636   -1.1660 H   0  0  0  0  0
    8.7146    0.0172   -2.1416 H   0  0  0  0  0
    9.7200    0.3569   -0.0218 H   0  0  0  0  0
    8.4595   -1.3112    1.2389 H   0  0  0  0  0
    8.5340    0.2816    2.0295 H   0  0  0  0  0
    6.3287    0.8685    1.0702 H   0  0  0  0  0
    6.2191   -0.6245    2.0345 H   0  0  0  0  0
   -5.5048   -3.3091    1.2693 H   0  0  0  0  0
   -7.3824   -1.7808    0.8238 H   0  0  0  0  0
  1  2  1  0  0  0
  1  3  1  0  0  0
  1 22  1  0  0  0
  1 31  1  0  0  0
  2 32  1  0  0  0
  2 33  1  0  0  0
  2 34  1  0  0  0
  3  4  1  0  0  0
  4  5  2  0  0  0
  4  9  1  0  0  0
  5  6  1  0  0  0
  5 35  1  0  0  0
  6  7  2  0  0  0
  6 11  1  0  0  0
  7  8  1  0  0  0
  7 36  1  0  0  0
  8  9  2  0  0  0
  9 10  1  0  0  0
 10 37  1  0  0  0
 10 38  1  0  0  0
 11 12  2  0  0  0
 11 15  1  0  0  0
 12 13  1  0  0  0
 12 39  1  0  0  0
 13 14  1  0  0  0
 13 16  1  0  0  0
 14 15  2  0  0  0
 15 40  1  0  0  0
 16 17  1  0  0  0
 16 21  1  0  0  0
 16 41  1  0  0  0
 17 18  1  0  0  0
 17 42  1  0  0  0
 17 43  1  0  0  0
 18 19  1  0  0  0
 18 44  1  0  0  0
 18 45  1  0  0  0
 19 20  1  0  0  0
 19 46  1  0  0  0
 20 21  1  0  0  0
 20 47  1  0  0  0
 20 48  1  0  0  0
 21 49  1  0  0  0
 21 50  1  0  0  0
 22 23  2  0  0  0
 22 29  1  0  0  0
 23 24  1  0  0  0
 23 25  1  0  0  0
 25 26  2  0  0  0
 25 51  1  0  0  0
 26 27  1  0  0  0
 26 52  1  0  0  0
 27 28  1  0  0  0
 27 29  2  0  0  0
 29 30  1  0  0  0
M  END
>  <likely_enzyme_classes>
monooxygenase

>  <activity>
-12

>  <molID>
mol000041

>  <name>
crizotinib

>  <reference>
PHIZER CONFIDENTIAL DATA

>  <speciation_state_pH7.4>
cationic

>  <substance_type>
anti-cancer drug

>  <smiles>
C[C@@H](Oc1cc(-c2cnn(C3CCNCC3)c2)cnc1N)c1c(Cl)ccc(F)c1Cl

>  <inchi>
InChI=1S/C21H22Cl2FN5O/c1-12(19-16(22)2-3-17(24)20(19)23)30-18-8-13(9-27-21(18)25)14-10-28-29(11-14)15-4-6-26-7-5-15/h2-3,8-12,15,26H,4-7H2,1H3,(H2,25,27)/t12-/m1/s1

>  <inchikey>
KTEIFNKAUNYNJU-GFCCVEGCSA-N

$$$$
