clofibric acid
 OpenBabel07241711303D
CORINA evaluation license 3.49 0066  11.04.2013
 25 25  0  0  0  0  0  0  0  0999 V2000
    2.1085    0.2339   -1.7662 C   0  0  0  0  0
    2.3548    0.4520   -0.2720 C   0  0  0  0  0
    3.7253    1.1015   -0.0705 C   0  0  0  0  0
    1.3399    1.3071    0.2582 O   0  0  0  0  0
    0.0553    0.8737    0.1615 C   0  0  0  0  0
   -0.9874    1.6970    0.5606 C   0  0  0  0  0
   -2.2924    1.2549    0.4610 C   0  0  0  0  0
   -2.5598   -0.0082   -0.0364 C   0  0  0  0  0
   -4.2005   -0.5616   -0.1606 Cl  0  0  0  0  0
   -1.5212   -0.8308   -0.4354 C   0  0  0  0  0
   -0.2151   -0.3904   -0.3419 C   0  0  0  0  0
    2.3176   -0.8745    0.4422 C   0  0  0  0  0
    3.1868   -1.8412    0.1080 O   0  0  0  0  0
    1.5054   -1.0678    1.3156 O   0  0  0  0  0
    2.7877   -0.5331   -2.1382 H   0  0  0  0  0
    1.0783   -0.0866   -1.9216 H   0  0  0  0  0
    2.2840    1.1661   -2.3032 H   0  0  0  0  0
    3.7277    2.0930   -0.5233 H   0  0  0  0  0
    3.9328    1.1887    0.9961 H   0  0  0  0  0
    4.4919    0.4855   -0.5406 H   0  0  0  0  0
   -0.7790    2.6829    0.9492 H   0  0  0  0  0
   -3.1044    1.8955    0.7720 H   0  0  0  0  0
   -1.7319   -1.8163   -0.8238 H   0  0  0  0  0
    0.5953   -1.0327   -0.6534 H   0  0  0  0  0
    3.1244   -2.6749    0.5940 H   0  0  0  0  0
  1  2  1  0  0  0
  1 15  1  0  0  0
  1 16  1  0  0  0
  1 17  1  0  0  0
  2  3  1  0  0  0
  2  4  1  0  0  0
  2 12  1  0  0  0
  3 18  1  0  0  0
  3 19  1  0  0  0
  3 20  1  0  0  0
  4  5  1  0  0  0
  5  6  2  0  0  0
  5 11  1  0  0  0
  6  7  1  0  0  0
  6 21  1  0  0  0
  7  8  2  0  0  0
  7 22  1  0  0  0
  8  9  1  0  0  0
  8 10  1  0  0  0
 10 11  2  0  0  0
 10 23  1  0  0  0
 11 24  1  0  0  0
 12 13  1  0  0  0
 12 14  2  0  0  0
 13 25  1  0  0  0
M  END
>  <likely_enzyme_classes>
dioxygenase; decarboxylase

>  <activity>
-12

>  <molID>
mol000077

>  <name>
clofibric acid

>  <reference>
Araujo et al. (2014)

>  <speciation_state_pH7.4>
anionic

>  <substance_type>
lipid lowering drug

>  <smiles>
CC(C)(Oc1ccc(Cl)cc1)C(=O)O

>  <inchi>
InChI=1S/C10H11ClO3/c1-10(2,9(12)13)14-8-5-3-7(11)4-6-8/h3-6H,1-2H3,(H,12,13)

>  <inchikey>
TXCGAZHTZHNUAI-UHFFFAOYSA-N

$$$$
