dimethylamine
 OpenBabel07241711303D
CORINA evaluation license 3.49 0066  11.04.2013
 16 15  0  0  0  0  0  0  0  0999 V2000
    2.4480   -0.3663    0.0292 C   0  0  0  0  0
    1.2106    0.5325   -0.0160 C   0  0  0  0  0
   -0.0000   -0.2985    0.0258 N   0  0  0  0  0
   -1.2106    0.5325   -0.0160 C   0  0  0  0  0
   -2.4480   -0.3663    0.0292 C   0  0  0  0  0
    3.3463    0.2503   -0.0018 H   0  0  0  0  0
    2.4396   -0.9502    0.9496 H   0  0  0  0  0
    2.4396   -1.0394   -0.8281 H   0  0  0  0  0
    1.2190    1.2056    0.8413 H   0  0  0  0  0
    1.2190    1.1163   -0.9364 H   0  0  0  0  0
   -0.0000   -0.9753   -0.7226 H   0  0  0  0  0
   -1.2190    1.2056    0.8413 H   0  0  0  0  0
   -1.2190    1.1163   -0.9364 H   0  0  0  0  0
   -3.3463    0.2503   -0.0018 H   0  0  0  0  0
   -2.4396   -1.0394   -0.8281 H   0  0  0  0  0
   -2.4396   -0.9502    0.9496 H   0  0  0  0  0
  1  2  1  0  0  0
  1  6  1  0  0  0
  1  7  1  0  0  0
  1  8  1  0  0  0
  2  3  1  0  0  0
  2  9  1  0  0  0
  2 10  1  0  0  0
  3  4  1  0  0  0
  3 11  1  0  0  0
  4  5  1  0  0  0
  4 12  1  0  0  0
  4 13  1  0  0  0
  5 14  1  0  0  0
  5 15  1  0  0  0
  5 16  1  0  0  0
M  END
>  <likely_enzyme_classes>
monooxygenase

>  <activity>
-9.6

>  <molID>
mol000044

>  <name>
dimethylamine

>  <reference>
Howard: Handbook of Environmental Fate and Exposure Data For Organic Chemicals, Volume 2

>  <speciation_state_pH7.4>
cationic

>  <substance_type>
chemical substance

>  <smiles>
CCNCC

>  <inchi>
InChI=1S/C4H11N/c1-3-5-4-2/h5H,3-4H2,1-2H3

>  <inchikey>
HPNMFZURTQLUMO-UHFFFAOYSA-N

$$$$
