paracetamol
 OpenBabel07241711303D
CORINA evaluation license 3.49 0066  11.04.2013
 20 20  0  0  0  0  0  0  0  0999 V2000
    3.9796    0.2260   -0.0328 C   0  0  0  0  0
    2.5172   -0.1355   -0.0725 C   0  0  0  0  0
    2.1737   -1.2313   -0.4630 O   0  0  0  0  0
    1.5909    0.7588    0.3260 N   0  0  0  0  0
    0.2281    0.4597    0.1986 C   0  0  0  0  0
   -0.2171   -0.8429    0.3801 C   0  0  0  0  0
   -1.5605   -1.1369    0.2549 C   0  0  0  0  0
   -2.4651   -0.1312   -0.0526 C   0  0  0  0  0
   -3.7878   -0.4213   -0.1757 O   0  0  0  0  0
   -2.0211    1.1704   -0.2340 C   0  0  0  0  0
   -0.6787    1.4668   -0.1035 C   0  0  0  0  0
    4.5720   -0.6165   -0.3898 H   0  0  0  0  0
    4.1574    1.0915   -0.6712 H   0  0  0  0  0
    4.2673    0.4645    0.9911 H   0  0  0  0  0
    1.8678    1.6094    0.7010 H   0  0  0  0  0
    0.4873   -1.6261    0.6188 H   0  0  0  0  0
   -1.9068   -2.1500    0.3961 H   0  0  0  0  0
   -4.2856   -0.3456    0.6498 H   0  0  0  0  0
   -2.7259    1.9528   -0.4738 H   0  0  0  0  0
   -0.3331    2.4802   -0.2448 H   0  0  0  0  0
  1  2  1  0  0  0
  1 12  1  0  0  0
  1 13  1  0  0  0
  1 14  1  0  0  0
  2  3  2  0  0  0
  2  4  1  0  0  0
  4  5  1  0  0  0
  4 15  1  0  0  0
  5  6  2  0  0  0
  5 11  1  0  0  0
  6  7  1  0  0  0
  6 16  1  0  0  0
  7  8  2  0  0  0
  7 17  1  0  0  0
  8  9  1  0  0  0
  8 10  1  0  0  0
  9 18  1  0  0  0
 10 11  2  0  0  0
 10 19  1  0  0  0
 11 20  1  0  0  0
M  END
>  <likely_enzyme_classes>
amidohydrolase

>  <activity>
-11.4

>  <molID>
mol000152

>  <name>
paracetamol

>  <reference>
Lam et al. (2004); Baena-Nogueras et al. (2017)

>  <speciation_state_pH7.4>
neutral

>  <substance_type>
analgesic drug

>  <smiles>
CC(O)=Nc1ccc(O)cc1

>  <inchi>
InChI=1S/C8H9NO2/c1-6(10)9-7-2-4-8(11)5-3-7/h2-5,11H,1H3,(H,9,10)

>  <inchikey>
RZVAJINKPMORJF-UHFFFAOYSA-N

$$$$
