p-Cresol
 OpenBabel07241711303D
CORINA evaluation license 3.49 0066  11.04.2013
 16 16  0  0  0  0  0  0  0  0999 V2000
    2.9120   -0.0000   -0.0146 C   0  0  0  0  0
    1.4050   -0.0000   -0.0025 C   0  0  0  0  0
    0.7149    1.1981    0.0016 C   0  0  0  0  0
   -0.6665    1.2008    0.0131 C   0  0  0  0  0
   -1.3613    0.0000    0.0201 C   0  0  0  0  0
   -2.7202    0.0000    0.0310 O   0  0  0  0  0
   -0.6665   -1.2008    0.0155 C   0  0  0  0  0
    0.7149   -1.1981   -0.0012 C   0  0  0  0  0
    3.2835    0.0012    1.0102 H   0  0  0  0  0
    3.2712   -0.8906   -0.5302 H   0  0  0  0  0
    3.2712    0.8893   -0.5323 H   0  0  0  0  0
    1.2563    2.1326   -0.0039 H   0  0  0  0  0
   -1.2051    2.1369    0.0170 H   0  0  0  0  0
   -3.1206   -0.0010   -0.8493 H   0  0  0  0  0
   -1.2051   -2.1369    0.0213 H   0  0  0  0  0
    1.2562   -2.1326   -0.0052 H   0  0  0  0  0
  1  2  1  0  0  0
  1  9  1  0  0  0
  1 10  1  0  0  0
  1 11  1  0  0  0
  2  3  2  0  0  0
  2  8  1  0  0  0
  3  4  1  0  0  0
  3 12  1  0  0  0
  4  5  2  0  0  0
  4 13  1  0  0  0
  5  6  1  0  0  0
  5  7  1  0  0  0
  6 14  1  0  0  0
  7  8  2  0  0  0
  7 15  1  0  0  0
  8 16  1  0  0  0
M  END
>  <likely_enzyme_classes>
monooxygenase; methylhydroxylase

>  <activity>
-9

>  <molID>
mol000020

>  <name>
p-Cresol

>  <reference>
Smith et al. 1978; Mackay handbook of physical-chemical properties

>  <speciation_state_pH7.4>
neutral

>  <substance_type>
chemical substance

>  <smiles>
Cc1ccc(O)cc1

>  <inchi>
InChI=1S/C7H8O/c1-6-2-4-7(8)5-3-6/h2-5,8H,1H3

>  <inchikey>
IWDCLRJOBJJRNH-UHFFFAOYSA-N

$$$$
