Naproxen
 OpenBabel07241711303D
CORINA evaluation license 3.49 0066  11.04.2013
 31 32  0  0  0  0  0  0  0  0999 V2000
   -3.5686   -0.3147   -1.7877 C   0  0  0  0  0
   -2.9808   -0.6770   -0.4224 C   0  0  0  0  0
   -1.5514   -0.2052   -0.3497 C   0  0  0  0  0
   -0.5565   -1.1104   -0.1422 C   0  0  0  0  0
    0.7777   -0.6745   -0.0742 C   0  0  0  0  0
    1.0659    0.7053   -0.2236 C   0  0  0  0  0
    0.0117    1.6104   -0.4366 C   0  0  0  0  0
   -1.2676    1.1509   -0.5018 C   0  0  0  0  0
    2.3989    1.1427   -0.1555 C   0  0  0  0  0
    3.3975    0.2348    0.0533 C   0  0  0  0  0
    3.1107   -1.1261    0.2003 C   0  0  0  0  0
    1.8307   -1.5812    0.1394 C   0  0  0  0  0
    4.6868    0.6592    0.1185 O   0  0  0  0  0
    5.6873   -0.3370    0.3387 C   0  0  0  0  0
   -3.7854   -0.0108    0.6638 C   0  0  0  0  0
   -3.2529    0.7673    1.4193 O   0  0  0  0  0
   -5.0938   -0.2818    0.7919 O   0  0  0  0  0
   -2.9866   -0.7966   -2.5733 H   0  0  0  0  0
   -4.6025   -0.6559   -1.8402 H   0  0  0  0  0
   -3.5356    0.7665   -1.9222 H   0  0  0  0  0
   -3.0138   -1.7581   -0.2878 H   0  0  0  0  0
   -0.7913   -2.1586   -0.0298 H   0  0  0  0  0
    0.2163    2.6646   -0.5521 H   0  0  0  0  0
   -2.0757    1.8484   -0.6656 H   0  0  0  0  0
    2.6328    2.1911   -0.2679 H   0  0  0  0  0
    3.9171   -1.8254    0.3645 H   0  0  0  0  0
    1.6238   -2.6348    0.2553 H   0  0  0  0  0
    5.4964   -0.8405    1.2864 H   0  0  0  0  0
    5.6594   -1.0654   -0.4717 H   0  0  0  0  0
    6.6694    0.1349    0.3694 H   0  0  0  0  0
   -5.5681    0.1698    1.5033 H   0  0  0  0  0
  1  2  1  0  0  0
  1 18  1  0  0  0
  1 19  1  0  0  0
  1 20  1  0  0  0
  2  3  1  0  0  0
  2 15  1  0  0  0
  2 21  1  0  0  0
  3  4  2  0  0  0
  3  8  1  0  0  0
  4  5  1  0  0  0
  4 22  1  0  0  0
  5  6  2  0  0  0
  5 12  1  0  0  0
  6  7  1  0  0  0
  6  9  1  0  0  0
  7  8  2  0  0  0
  7 23  1  0  0  0
  8 24  1  0  0  0
  9 10  2  0  0  0
  9 25  1  0  0  0
 10 11  1  0  0  0
 10 13  1  0  0  0
 11 12  2  0  0  0
 11 26  1  0  0  0
 12 27  1  0  0  0
 13 14  1  0  0  0
 14 28  1  0  0  0
 14 29  1  0  0  0
 14 30  1  0  0  0
 15 16  2  0  0  0
 15 17  1  0  0  0
 17 31  1  0  0  0
M  END
>  <likely_enzyme_classes>
monooxygenase

>  <activity>
-11.8

>  <molID>
mol000175

>  <name>
Naproxen

>  <reference>
Baena-Nogueras et al. (2017)

>  <speciation_state_pH7.4>
anionic

>  <substance_type>
nonsteroidal anti-inflammatory drug

>  <smiles>
COc1ccc2cc(C(C)C(=O)O)ccc2c1

>  <inchi>
InChI=1S/C14H14O3/c1-9(14(15)16)10-3-4-12-8-13(17-2)6-5-11(12)7-10/h3-9H,1-2H3,(H,15,16)

>  <inchikey>
CMWTZPSULFXXJA-UHFFFAOYSA-N

$$$$
