1-butyl-3-methylimidazolium hexafluorophosphate
 OpenBabel07241711303D
CORINA evaluation license 3.49 0066  11.04.2013
 25 25  0  0  0  0  0  0  0  0999 V2000
    4.3195    0.5461   -0.7612 C   0  0  0  0  0
    3.3641    0.0682    0.3342 C   0  0  0  0  0
    1.9289    0.0906   -0.1955 C   0  0  0  0  0
    0.9735   -0.3872    0.8998 C   0  0  0  0  0
   -0.4007   -0.3658    0.3926 N   0  0  0  0  0
   -1.0487   -1.3915   -0.2412 C   0  0  0  0  0
   -2.2855   -0.9480   -0.5361 C   0  0  0  0  0
   -2.3900    0.3142   -0.0944 N   0  0  0  0  0
   -3.5795    1.1603   -0.2182 C   0  0  0  0  0
   -1.2668    0.6676    0.4682 C   0  0  0  0  0
    5.3420    0.5301   -0.3838 H   0  0  0  0  0
    4.2408   -0.1138   -1.6252 H   0  0  0  0  0
    4.0564    1.5622   -1.0549 H   0  0  0  0  0
    3.6272   -0.9479    0.6279 H   0  0  0  0  0
    3.4428    0.7281    1.1982 H   0  0  0  0  0
    1.6658    1.1068   -0.4893 H   0  0  0  0  0
    1.8502   -0.5692   -1.0596 H   0  0  0  0  0
    1.2366   -1.4034    1.1935 H   0  0  0  0  0
    1.0522    0.2726    1.7638 H   0  0  0  0  0
   -0.6453   -2.3685   -0.4628 H   0  0  0  0  0
   -3.0580   -1.5100   -1.0399 H   0  0  0  0  0
   -4.2147    1.0245    0.6572 H   0  0  0  0  0
   -3.2766    2.2050   -0.2888 H   0  0  0  0  0
   -4.1324    0.8809   -1.1151 H   0  0  0  0  0
   -1.0614    1.6297    0.9138 H   0  0  0  0  0
  1  2  1  0  0  0
  1 11  1  0  0  0
  1 12  1  0  0  0
  1 13  1  0  0  0
  2  3  1  0  0  0
  2 14  1  0  0  0
  2 15  1  0  0  0
  3  4  1  0  0  0
  3 16  1  0  0  0
  3 17  1  0  0  0
  4  5  1  0  0  0
  4 18  1  0  0  0
  4 19  1  0  0  0
  5  6  1  0  0  0
  5 10  1  0  0  0
  6  7  2  0  0  0
  6 20  1  0  0  0
  7  8  1  0  0  0
  7 21  1  0  0  0
  8  9  1  0  0  0
  8 10  2  0  0  0
  9 22  1  0  0  0
  9 23  1  0  0  0
  9 24  1  0  0  0
 10 25  1  0  0  0
M  CHG  1   8   1
M  END
>  <likely_enzyme_classes>
demethylase; amine dehydrogenase

>  <activity>
-11.9

>  <molID>
mol000147

>  <name>
1-butyl-3-methylimidazolium hexafluorophosphate

>  <reference>
GARBACZEWSKA and JarosĊaw HUPKO (2007)

>  <speciation_state_pH7.4>
cationic

>  <substance_type>
ionic liquid

>  <smiles>
CCCCn1cc[n+](C)c1

>  <inchi>
InChI=1S/C8H15N2/c1-3-4-5-10-7-6-9(2)8-10/h6-8H,3-5H2,1-2H3/q+1

>  <inchikey>
IQQRAVYLUAZUGX-UHFFFAOYSA-N

$$$$
