1-methylimidazolium L-lactate
 OpenBabel07241711303D
CORINA evaluation license 3.49 0066  11.04.2013
 12 12  0  0  0  0  0  0  0  0999 V2000
    2.1208    0.0270    0.0008 C   0  0  0  0  0
    0.6559    0.0116    0.0009 N   0  0  0  0  0
   -0.1679    1.1048   -0.0011 C   0  0  0  0  0
   -1.4319    0.6402   -0.0001 C   0  0  0  0  0
   -1.3813   -0.7001    0.0023 N   0  0  0  0  0
   -0.1340   -1.0837   -0.0030 C   0  0  0  0  0
    2.4842    0.0327    1.0284 H   0  0  0  0  0
    2.4934   -0.8600   -0.5114 H   0  0  0  0  0
    2.4747    0.9198   -0.5147 H   0  0  0  0  0
    0.1372    2.1408   -0.0025 H   0  0  0  0  0
   -2.3290    1.2415   -0.0012 H   0  0  0  0  0
    0.2097   -2.1076   -0.0029 H   0  0  0  0  0
  1  2  1  0  0  0
  1  7  1  0  0  0
  1  8  1  0  0  0
  1  9  1  0  0  0
  2  3  1  0  0  0
  2  6  1  0  0  0
  3  4  2  0  0  0
  3 10  1  0  0  0
  4  5  1  0  0  0
  4 11  1  0  0  0
  5  6  2  0  0  0
  6 12  1  0  0  0
M  END
>  <likely_enzyme_classes>
demethylase

>  <activity>
-12.1

>  <molID>
mol000149

>  <name>
1-methylimidazolium L-lactate

>  <reference>
GARBACZEWSKA and JarosĊaw HUPKO (2007)

>  <speciation_state_pH7.4>
cationic

>  <substance_type>
ionic liquid

>  <smiles>
Cn1ccnc1

>  <inchi>
InChI=1S/C4H6N2/c1-6-3-2-5-4-6/h2-4H,1H3

>  <inchikey>
MCTWTZJPVLRJOU-UHFFFAOYSA-N

$$$$
