Nadolol
 OpenBabel07241711303D
CORINA evaluation license 3.49 0066  11.04.2013
 49 50  0  0  0  0  0  0  0  0999 V2000
   -6.0976    0.6577   -1.3690 C   0  0  0  0  0
   -5.9547   -0.2088   -0.1162 C   0  0  0  0  0
   -6.1554    0.6577    1.1288 C   0  0  0  0  0
   -7.0078   -1.3183   -0.1406 C   0  0  0  0  0
   -4.6135   -0.8072   -0.0852 N   0  0  0  0  0
   -3.5742    0.2307   -0.0611 C   0  0  0  0  0
   -2.1945   -0.4297   -0.0292 C   0  0  0  0  0
   -1.1121    0.6514   -0.0041 C   0  0  0  0  0
    0.1757    0.0382   -0.0917 O   0  0  0  0  0
    1.2545    0.8647   -0.0823 C   0  0  0  0  0
    1.0712    2.2338    0.0095 C   0  0  0  0  0
    2.1692    3.0725    0.0194 C   0  0  0  0  0
    3.4396    2.5411   -0.0646 C   0  0  0  0  0
    3.6284    1.1677   -0.1598 C   0  0  0  0  0
    2.5387    0.3280   -0.1593 C   0  0  0  0  0
    2.6687   -1.1700   -0.2489 C   0  0  0  0  0
    4.0502   -1.5586   -0.7718 C   0  0  0  0  0
    5.1069   -0.8283    0.0653 C   0  0  0  0  0
    5.0429    0.6601   -0.2628 C   0  0  0  0  0
    4.8372   -1.0212    1.4553 O   0  0  0  0  0
    4.2312   -2.9709   -0.6499 O   0  0  0  0  0
   -2.0826   -1.2430    1.1405 O   0  0  0  0  0
   -5.3473    1.4482   -1.3516 H   0  0  0  0  0
   -5.9546    0.0405   -2.2560 H   0  0  0  0  0
   -7.0928    1.1018   -1.3921 H   0  0  0  0  0
   -7.1506    1.1017    1.1058 H   0  0  0  0  0
   -6.0536    0.0404    2.0213 H   0  0  0  0  0
   -5.4051    1.4481    1.1462 H   0  0  0  0  0
   -6.8648   -1.9356   -1.0275 H   0  0  0  0  0
   -6.9060   -1.9356    0.7520 H   0  0  0  0  0
   -8.0030   -0.8743   -0.1636 H   0  0  0  0  0
   -4.5157   -1.4351    0.6987 H   0  0  0  0  0
   -3.6596    0.8511   -0.9532 H   0  0  0  0  0
   -3.7008    0.8510    0.8262 H   0  0  0  0  0
   -2.0680   -1.0500   -0.9165 H   0  0  0  0  0
   -1.2520    1.3253   -0.8493 H   0  0  0  0  0
   -1.1834    1.2154    0.9259 H   0  0  0  0  0
    0.0743    2.6445    0.0727 H   0  0  0  0  0
    2.0333    4.1414    0.0925 H   0  0  0  0  0
    4.2959    3.1992   -0.0568 H   0  0  0  0  0
    2.5241   -1.6031    0.7408 H   0  0  0  0  0
    1.9065   -1.5571   -0.9250 H   0  0  0  0  0
    4.1429   -1.2650   -1.8174 H   0  0  0  0  0
    6.0971   -1.2159   -0.1742 H   0  0  0  0  0
    5.4019    0.8197   -1.2796 H   0  0  0  0  0
    5.6783    1.2090    0.4322 H   0  0  0  0  0
    5.4692   -0.5848    2.0429 H   0  0  0  0  0
    3.5842   -3.4943   -1.1423 H   0  0  0  0  0
   -2.1850   -0.7558    1.9695 H   0  0  0  0  0
  1  2  1  0  0  0
  1 23  1  0  0  0
  1 24  1  0  0  0
  1 25  1  0  0  0
  2  3  1  0  0  0
  2  4  1  0  0  0
  2  5  1  0  0  0
  3 26  1  0  0  0
  3 27  1  0  0  0
  3 28  1  0  0  0
  4 29  1  0  0  0
  4 30  1  0  0  0
  4 31  1  0  0  0
  5  6  1  0  0  0
  5 32  1  0  0  0
  6  7  1  0  0  0
  6 33  1  0  0  0
  6 34  1  0  0  0
  7  8  1  0  0  0
  7 22  1  0  0  0
  7 35  1  0  0  0
  8  9  1  0  0  0
  8 36  1  0  0  0
  8 37  1  0  0  0
  9 10  1  0  0  0
 10 11  2  0  0  0
 10 15  1  0  0  0
 11 12  1  0  0  0
 11 38  1  0  0  0
 12 13  2  0  0  0
 12 39  1  0  0  0
 13 14  1  0  0  0
 13 40  1  0  0  0
 14 15  2  0  0  0
 14 19  1  0  0  0
 15 16  1  0  0  0
 16 17  1  0  0  0
 16 41  1  0  0  0
 16 42  1  0  0  0
 17 18  1  0  0  0
 17 21  1  0  0  0
 17 43  1  0  0  0
 18 19  1  0  0  0
 18 20  1  0  0  0
 18 44  1  0  0  0
 19 45  1  0  0  0
 19 46  1  0  0  0
 20 47  1  0  0  0
 21 48  1  0  0  0
 22 49  1  0  0  0
M  END
>  <likely_enzyme_classes>
monooxygenase

>  <activity>
-10.9

>  <molID>
mol000181

>  <name>
Nadolol

>  <reference>
Baena-Nogueras et al. (2017)

>  <speciation_state_pH7.4>
cationic

>  <substance_type>
beta blocker drug

>  <smiles>
CC(C)(C)NCC(O)COc1cccc2c1CC(O)C(O)C2

>  <inchi>
InChI=1S/C17H27NO4/c1-17(2,3)18-9-12(19)10-22-16-6-4-5-11-7-14(20)15(21)8-13(11)16/h4-6,12,14-15,18-21H,7-10H2,1-3H3

>  <inchikey>
VWPOSFSPZNDTMJ-UHFFFAOYSA-N

$$$$
