4-nitrophenol
 OpenBabel07241711303D
CORINA evaluation license 3.49 0066  11.04.2013
 15 15  0  0  0  0  0  0  0  0999 V2000
    3.4920   -0.0000   -0.0247 O   0  0  0  0  0
    2.1330   -0.0000   -0.0171 C   0  0  0  0  0
    1.4382    1.2008   -0.0145 C   0  0  0  0  0
    0.0568    1.1981   -0.0073 C   0  0  0  0  0
   -0.6333   -0.0000   -0.0028 C   0  0  0  0  0
    0.0568   -1.1981   -0.0054 C   0  0  0  0  0
    1.4382   -1.2008   -0.0179 C   0  0  0  0  0
   -2.1134    0.0000    0.0054 N   0  0  0  0  0
   -2.7224    1.0548    0.0081 O   0  0  0  0  0
   -2.7224   -1.0548    0.0094 O   0  0  0  0  0
    3.8902    0.0008    0.8565 H   0  0  0  0  0
    1.9769    2.1369   -0.0176 H   0  0  0  0  0
   -0.4845    2.1326   -0.0049 H   0  0  0  0  0
   -0.4846   -2.1326   -0.0015 H   0  0  0  0  0
    1.9768   -2.1369   -0.0200 H   0  0  0  0  0
  1  2  1  0  0  0
  1 11  1  0  0  0
  2  3  2  0  0  0
  2  7  1  0  0  0
  3  4  1  0  0  0
  3 12  1  0  0  0
  4  5  2  0  0  0
  4 13  1  0  0  0
  5  6  1  0  0  0
  5  8  1  0  0  0
  6  7  2  0  0  0
  6 14  1  0  0  0
  7 15  1  0  0  0
  8  9  1  0  0  0
  8 10  2  0  0  0
M  CHG  2   8   1   9  -1
M  END
>  <likely_enzyme_classes>
monooxygenase; dioxygenase; nitroreductase

>  <activity>
-10.1

>  <molID>
mol000010

>  <name>
4-nitrophenol

>  <reference>
Mackay handbook of physical-chemical properties

>  <speciation_state_pH7.4>
neutral

>  <substance_type>
chemical substance

>  <smiles>
O=[N+]([O-])c1ccc(O)cc1

>  <inchi>
InChI=1S/C6H5NO3/c8-6-3-1-5(2-4-6)7(9)10/h1-4,8H

>  <inchikey>
BTJIUGUIPKRLHP-UHFFFAOYSA-N

$$$$
