methanol
 OpenBabel07241711303D
CORINA evaluation license 3.49 0066  11.04.2013
  6  5  0  0  0  0  0  0  0  0999 V2000
    0.7370   -0.0147   -0.0000 C   0  0  0  0  0
   -0.6896    0.0677    0.0000 O   0  0  0  0  0
    1.0701   -0.5487    0.8900 H   0  0  0  0  0
    1.0701   -0.5487   -0.8900 H   0  0  0  0  0
    1.1590    0.9902   -0.0000 H   0  0  0  0  0
   -1.1333   -0.7916    0.0000 H   0  0  0  0  0
  1  2  1  0  0  0
  1  3  1  0  0  0
  1  4  1  0  0  0
  1  5  1  0  0  0
  2  6  1  0  0  0
M  END
>  <likely_enzyme_classes>
alcohol dehydrogenase

>  <activity>
-9.4

>  <molID>
mol000134

>  <name>
methanol

>  <reference>
Howard: Handbook of Environmental Degradation Rates; Capel and Larson (1995); Mackay handbook

>  <speciation_state_pH7.4>
neutral

>  <substance_type>
chemical substance

>  <smiles>
CO

>  <inchi>
InChI=1S/CH4O/c1-2/h2H,1H3

>  <inchikey>
OKKJLVBELUTLKV-UHFFFAOYSA-N

$$$$
