1,4-dioxane
 OpenBabel07241711303D
CORINA evaluation license 3.49 0066  11.04.2013
 14 14  0  0  0  0  0  0  0  0999 V2000
    0.7338   -1.1972    0.2186 C   0  0  0  0  0
   -0.7339   -1.1971   -0.2186 C   0  0  0  0  0
   -1.3628    0.0000    0.2487 O   0  0  0  0  0
   -0.7338    1.1972   -0.2186 C   0  0  0  0  0
    0.7339    1.1971    0.2186 C   0  0  0  0  0
    1.3628   -0.0000   -0.2487 O   0  0  0  0  0
    0.7899   -1.2374    1.3064 H   0  0  0  0  0
    1.2403   -2.0642   -0.2056 H   0  0  0  0  0
   -0.7899   -1.2374   -1.3064 H   0  0  0  0  0
   -1.2403   -2.0641    0.2056 H   0  0  0  0  0
   -0.7899    1.2374   -1.3064 H   0  0  0  0  0
   -1.2403    2.0642    0.2056 H   0  0  0  0  0
    1.2403    2.0641   -0.2056 H   0  0  0  0  0
    0.7899    1.2374    1.3064 H   0  0  0  0  0
  1  2  1  0  0  0
  1  6  1  0  0  0
  1  7  1  0  0  0
  1  8  1  0  0  0
  2  3  1  0  0  0
  2  9  1  0  0  0
  2 10  1  0  0  0
  3  4  1  0  0  0
  4  5  1  0  0  0
  4 11  1  0  0  0
  4 12  1  0  0  0
  5  6  1  0  0  0
  5 13  1  0  0  0
  5 14  1  0  0  0
M  END
>  <likely_enzyme_classes>
monooxygenase

>  <activity>
-11

>  <molID>
mol000003

>  <name>
1,4-dioxane

>  <reference>
Howard: Handbook of Environmental Degradation Rates; Capel and Larson (1995); Mackay handbook

>  <speciation_state_pH7.4>
neutral

>  <substance_type>
chemical substance

>  <smiles>
C1COCCO1

>  <inchi>
InChI=1S/C4H8O2/c1-2-6-4-3-5-1/h1-4H2

>  <inchikey>
RYHBNJHYFVUHQT-UHFFFAOYSA-N

$$$$
