o-Cresol
 OpenBabel07241711303D
CORINA evaluation license 3.49 0066  11.04.2013
 16 16  0  0  0  0  0  0  0  0999 V2000
    1.8330    1.4300    0.0107 C   0  0  0  0  0
    0.5162    0.6972    0.0068 C   0  0  0  0  0
   -0.6692    1.4060   -0.0113 C   0  0  0  0  0
   -1.8779    0.7342   -0.0149 C   0  0  0  0  0
   -1.9032   -0.6480   -0.0004 C   0  0  0  0  0
   -0.7202   -1.3616    0.0182 C   0  0  0  0  0
    0.4936   -0.6901    0.0156 C   0  0  0  0  0
    1.6585   -1.3897    0.0339 O   0  0  0  0  0
    2.1413    1.6176    1.0392 H   0  0  0  0  0
    2.5878    0.8236   -0.4900 H   0  0  0  0  0
    1.7224    2.3789   -0.5142 H   0  0  0  0  0
   -0.6521    2.4858   -0.0223 H   0  0  0  0  0
   -2.8037    1.2902   -0.0287 H   0  0  0  0  0
   -2.8484   -1.1704   -0.0032 H   0  0  0  0  0
   -0.7405   -2.4413    0.0300 H   0  0  0  0  0
    2.0013   -1.6058   -0.8441 H   0  0  0  0  0
  1  2  1  0  0  0
  1  9  1  0  0  0
  1 10  1  0  0  0
  1 11  1  0  0  0
  2  3  2  0  0  0
  2  7  1  0  0  0
  3  4  1  0  0  0
  3 12  1  0  0  0
  4  5  2  0  0  0
  4 13  1  0  0  0
  5  6  1  0  0  0
  5 14  1  0  0  0
  6  7  2  0  0  0
  6 15  1  0  0  0
  7  8  1  0  0  0
  8 16  1  0  0  0
M  END
>  <likely_enzyme_classes>
monooxygenase; methylhydroxylase

>  <activity>
-9.6

>  <molID>
mol000019

>  <name>
o-Cresol

>  <reference>
Paris et al. 1983; quoted, Steen 1991; Mackay handbook of physical-chemical properties

>  <speciation_state_pH7.4>
neutral

>  <substance_type>
chemical substance

>  <smiles>
Cc1ccccc1O

>  <inchi>
InChI=1S/C7H8O/c1-6-4-2-3-5-7(6)8/h2-5,8H,1H3

>  <inchikey>
QWVGKYWNOKOFNN-UHFFFAOYSA-N

$$$$
