abacavir
 OpenBabel07241711303D
CORINA evaluation license 3.49 0066  11.04.2013
 39 42  0  0  0  0  0  0  0  0999 V2000
   -2.3411    3.4454   -0.2141 N   0  0  0  0  0
   -1.9399    2.1228   -0.1226 C   0  0  0  0  0
   -0.6484    1.8522   -0.0274 N   0  0  0  0  0
   -0.2255    0.5950    0.0626 C   0  0  0  0  0
   -1.1679   -0.4462    0.0554 C   0  0  0  0  0
   -0.4792   -1.6095    0.1575 N   0  0  0  0  0
    0.7946   -1.3540    0.2251 C   0  0  0  0  0
    1.0027   -0.0067    0.1705 N   0  0  0  0  0
    2.2997    0.6728    0.2179 C   0  0  0  0  0
    3.1894    0.2183   -0.9624 C   0  0  0  0  0
    4.5869    0.1951   -0.3008 C   0  0  0  0  0
    5.4151   -0.9704   -0.8453 C   0  0  0  0  0
    6.7385   -0.9054   -0.3099 O   0  0  0  0  0
    4.3113    0.0021    1.1723 C   0  0  0  0  0
    3.0640    0.2626    1.4552 C   0  0  0  0  0
   -2.5297   -0.1119   -0.0471 C   0  0  0  0  0
   -3.5004   -1.0977   -0.0584 N   0  0  0  0  0
   -4.9149   -0.7317   -0.1658 C   0  0  0  0  0
   -5.8719   -1.7734   -0.7488 C   0  0  0  0  0
   -5.9039   -1.4581    0.7480 C   0  0  0  0  0
   -2.8645    1.1708   -0.1282 N   0  0  0  0  0
   -1.6794    4.1546   -0.2076 H   0  0  0  0  0
   -3.2837    3.6623   -0.2886 H   0  0  0  0  0
    1.5723   -2.0983    0.3123 H   0  0  0  0  0
    2.1622    1.7539    0.1954 H   0  0  0  0  0
    2.9036   -0.7752   -1.3079 H   0  0  0  0  0
    3.1549    0.9397   -1.7788 H   0  0  0  0  0
    5.1036    1.1396   -0.4716 H   0  0  0  0  0
    4.9513   -1.9129   -0.5543 H   0  0  0  0  0
    5.4596   -0.9078   -1.9326 H   0  0  0  0  0
    7.3207   -1.6155   -0.6130 H   0  0  0  0  0
    5.0494   -0.3107    1.8960 H   0  0  0  0  0
    2.6346    0.1943    2.4438 H   0  0  0  0  0
   -3.2444   -2.0312    0.0048 H   0  0  0  0  0
   -5.1136    0.3161   -0.3911 H   0  0  0  0  0
   -6.7003   -1.4109   -1.3574 H   0  0  0  0  0
   -5.4490   -2.7311   -1.0524 H   0  0  0  0  0
   -5.5022   -2.2083    1.4291 H   0  0  0  0  0
   -6.7535   -0.8881    1.1242 H   0  0  0  0  0
  1  2  1  0  0  0
  1 22  1  0  0  0
  1 23  1  0  0  0
  2  3  2  0  0  0
  2 21  1  0  0  0
  3  4  1  0  0  0
  4  5  2  0  0  0
  4  8  1  0  0  0
  5  6  1  0  0  0
  5 16  1  0  0  0
  6  7  2  0  0  0
  7  8  1  0  0  0
  7 24  1  0  0  0
  8  9  1  0  0  0
  9 10  1  0  0  0
  9 15  1  0  0  0
  9 25  1  0  0  0
 10 11  1  0  0  0
 10 26  1  0  0  0
 10 27  1  0  0  0
 11 12  1  0  0  0
 11 14  1  0  0  0
 11 28  1  0  0  0
 12 13  1  0  0  0
 12 29  1  0  0  0
 12 30  1  0  0  0
 13 31  1  0  0  0
 14 15  2  0  0  0
 14 32  1  0  0  0
 15 33  1  0  0  0
 16 17  1  0  0  0
 16 21  2  0  0  0
 17 18  1  0  0  0
 17 34  1  0  0  0
 18 19  1  0  0  0
 18 20  1  0  0  0
 18 35  1  0  0  0
 19 20  1  0  0  0
 19 36  1  0  0  0
 19 37  1  0  0  0
 20 38  1  0  0  0
 20 39  1  0  0  0
M  END
>  <likely_enzyme_classes>
alcohol dehydrogenase; amine dehydrogenase

>  <activity>
-10

>  <molID>
mol000126

>  <name>
abacavir

>  <reference>
Prasse et al. (2015)

>  <speciation_state_pH7.4>
neutral

>  <substance_type>
antiviral drug

>  <smiles>
N=c1nc2c(ncn2[C@H]2C=C[C@@H](CO)C2)c(NC2CC2)[nH]1

>  <inchi>
InChI=1S/C14H18N6O/c15-14-18-12(17-9-2-3-9)11-13(19-14)20(7-16-11)10-4-1-8(5-10)6-21/h1,4,7-10,21H,2-3,5-6H2,(H3,15,17,18,19)/t8-,10+/m1/s1

>  <inchikey>
MCGSCOLBFJQGHM-SCZZXKLOSA-N

$$$$
