acebutolol
 OpenBabel07241711303D
CORINA evaluation license 3.49 0066  11.04.2013
 52 52  0  0  0  0  0  0  0  0999 V2000
    8.1553    2.7116   -0.0649 C   0  0  0  0  0
    6.6618    2.4716   -0.2947 C   0  0  0  0  0
    6.2786    1.0910    0.2420 C   0  0  0  0  0
    4.8076    0.8546    0.0156 C   0  0  0  0  0
    4.1321    1.7066   -0.5221 O   0  0  0  0  0
    4.2425   -0.3034    0.4107 N   0  0  0  0  0
    2.8566   -0.4799    0.3015 C   0  0  0  0  0
    2.3409   -1.7329    0.0256 C   0  0  0  0  0
    0.9560   -1.9069   -0.0826 C   0  0  0  0  0
    0.3994   -3.2334   -0.3748 C   0  0  0  0  0
    1.3194   -4.4127   -0.5592 C   0  0  0  0  0
   -0.8011   -3.3803   -0.4677 O   0  0  0  0  0
    0.1025   -0.8055    0.0904 C   0  0  0  0  0
   -1.2410   -0.9632   -0.0118 O   0  0  0  0  0
   -2.0471    0.2016    0.1763 C   0  0  0  0  0
   -3.5236   -0.1700    0.0246 C   0  0  0  0  0
   -3.9000   -1.0638    1.0741 O   0  0  0  0  0
   -4.3787    1.0963    0.1019 C   0  0  0  0  0
   -5.7963    0.7395   -0.0437 N   0  0  0  0  0
   -6.6495    1.9333    0.0256 C   0  0  0  0  0
   -6.7374    2.5785   -1.3589 C   0  0  0  0  0
   -8.0506    1.5325    0.4914 C   0  0  0  0  0
    0.6371    0.4440    0.3667 C   0  0  0  0  0
    2.0030    0.6054    0.4768 C   0  0  0  0  0
    8.3709    2.6640    1.0025 H   0  0  0  0  0
    8.7307    1.9465   -0.5862 H   0  0  0  0  0
    8.4283    3.6951   -0.4472 H   0  0  0  0  0
    6.0865    3.2366    0.2266 H   0  0  0  0  0
    6.4462    2.5191   -1.3621 H   0  0  0  0  0
    6.8540    0.3260   -0.2793 H   0  0  0  0  0
    6.4942    1.0435    1.3094 H   0  0  0  0  0
    4.7951   -1.0148    0.7705 H   0  0  0  0  0
    3.0045   -2.5746   -0.1064 H   0  0  0  0  0
    1.4876   -4.8963    0.4031 H   0  0  0  0  0
    0.8646   -5.1239   -1.2487 H   0  0  0  0  0
    2.2713   -4.0708   -0.9654 H   0  0  0  0  0
   -1.8748    0.6055    1.1739 H   0  0  0  0  0
   -1.7826    0.9509   -0.5698 H   0  0  0  0  0
   -3.6790   -0.6552   -0.9390 H   0  0  0  0  0
   -3.7878   -0.6974    1.9619 H   0  0  0  0  0
   -4.2233    1.5814    1.0655 H   0  0  0  0  0
   -4.0916    1.7781   -0.6986 H   0  0  0  0  0
   -5.9550    0.2309   -0.9006 H   0  0  0  0  0
   -6.2217    2.6451    0.7316 H   0  0  0  0  0
   -7.3704    3.4643   -1.3075 H   0  0  0  0  0
   -5.7392    2.8640   -1.6908 H   0  0  0  0  0
   -7.1652    1.8667   -2.0649 H   0  0  0  0  0
   -7.9880    1.0729    1.4778 H   0  0  0  0  0
   -8.6837    2.4183    0.5428 H   0  0  0  0  0
   -8.4784    0.8207   -0.2146 H   0  0  0  0  0
   -0.0178    1.2923    0.5001 H   0  0  0  0  0
    2.4127    1.5813    0.6921 H   0  0  0  0  0
  1  2  1  0  0  0
  1 25  1  0  0  0
  1 26  1  0  0  0
  1 27  1  0  0  0
  2  3  1  0  0  0
  2 28  1  0  0  0
  2 29  1  0  0  0
  3  4  1  0  0  0
  3 30  1  0  0  0
  3 31  1  0  0  0
  4  5  2  0  0  0
  4  6  1  0  0  0
  6  7  1  0  0  0
  6 32  1  0  0  0
  7  8  2  0  0  0
  7 24  1  0  0  0
  8  9  1  0  0  0
  8 33  1  0  0  0
  9 10  1  0  0  0
  9 13  2  0  0  0
 10 11  1  0  0  0
 10 12  2  0  0  0
 11 34  1  0  0  0
 11 35  1  0  0  0
 11 36  1  0  0  0
 13 14  1  0  0  0
 13 23  1  0  0  0
 14 15  1  0  0  0
 15 16  1  0  0  0
 15 37  1  0  0  0
 15 38  1  0  0  0
 16 17  1  0  0  0
 16 18  1  0  0  0
 16 39  1  0  0  0
 17 40  1  0  0  0
 18 19  1  0  0  0
 18 41  1  0  0  0
 18 42  1  0  0  0
 19 20  1  0  0  0
 19 43  1  0  0  0
 20 21  1  0  0  0
 20 22  1  0  0  0
 20 44  1  0  0  0
 21 45  1  0  0  0
 21 46  1  0  0  0
 21 47  1  0  0  0
 22 48  1  0  0  0
 22 49  1  0  0  0
 22 50  1  0  0  0
 23 24  2  0  0  0
 23 51  1  0  0  0
 24 52  1  0  0  0
M  END
>  <likely_enzyme_classes>
amine dehydrogenase; alcohol dehydrogenase; monooxygenase; dioxygenase; amidohydrolase

>  <activity>
-11.6

>  <molID>
mol000048

>  <name>
acebutolol

>  <reference>
Lin et al. (2010)

>  <speciation_state_pH7.4>
cationic

>  <substance_type>
beta blocker drug

>  <smiles>
CCCC(O)=Nc1ccc(OCC(O)CNC(C)C)c(C(C)=O)c1

>  <inchi>
InChI=1S/C18H28N2O4/c1-5-6-18(23)20-14-7-8-17(16(9-14)13(4)21)24-11-15(22)10-19-12(2)3/h7-9,12,15,19,22H,5-6,10-11H2,1-4H3,(H,20,23)

>  <inchikey>
GOEMGAFJFRBGGG-UHFFFAOYSA-N

$$$$
