ibuprofen
 OpenBabel07241711303D
CORINA evaluation license 3.49 0066  11.04.2013
 33 33  0  0  0  0  0  0  0  0999 V2000
   -3.2422    1.7396   -0.3188 C   0  0  0  0  0
   -3.6908    0.4579    0.3861 C   0  0  0  0  0
   -5.2175    0.3636    0.3499 C   0  0  0  0  0
   -3.0880   -0.7541   -0.3269 C   0  0  0  0  0
   -1.5879   -0.7254   -0.1853 C   0  0  0  0  0
   -0.9832   -1.3483    0.8905 C   0  0  0  0  0
    0.3928   -1.3219    1.0204 C   0  0  0  0  0
    1.1641   -0.6730    0.0743 C   0  0  0  0  0
    0.5594   -0.0509   -1.0019 C   0  0  0  0  0
   -0.8163   -0.0810   -1.1341 C   0  0  0  0  0
    2.6641   -0.6434    0.2165 C   0  0  0  0  0
    3.3052   -1.3092   -1.0027 C   0  0  0  0  0
    3.1315    0.7861    0.3121 C   0  0  0  0  0
    4.4394    1.0570    0.4449 O   0  0  0  0  0
    2.3289    1.6882    0.2691 O   0  0  0  0  0
   -3.5807    1.7220   -1.3548 H   0  0  0  0  0
   -3.6717    2.6031    0.1892 H   0  0  0  0  0
   -2.1546    1.8068   -0.2930 H   0  0  0  0  0
   -3.3523    0.4755    1.4221 H   0  0  0  0  0
   -5.5560    0.3461   -0.6860 H   0  0  0  0  0
   -5.5371   -0.5495    0.8521 H   0  0  0  0  0
   -5.6470    1.2271    0.8579 H   0  0  0  0  0
   -3.4776   -1.6691    0.1193 H   0  0  0  0  0
   -3.3538   -0.7234   -1.3835 H   0  0  0  0  0
   -1.5857   -1.8552    1.6296 H   0  0  0  0  0
    0.8652   -1.8080    1.8612 H   0  0  0  0  0
    1.1620    0.4563   -1.7408 H   0  0  0  0  0
   -1.2887    0.4050   -1.9749 H   0  0  0  0  0
    2.9542   -1.1817    1.1189 H   0  0  0  0  0
    2.9671   -2.3431   -1.0719 H   0  0  0  0  0
    3.0150   -0.7710   -1.9051 H   0  0  0  0  0
    4.3901   -1.2878   -0.8999 H   0  0  0  0  0
    4.6910    1.9890    0.5022 H   0  0  0  0  0
  1  2  1  0  0  0
  1 16  1  0  0  0
  1 17  1  0  0  0
  1 18  1  0  0  0
  2  3  1  0  0  0
  2  4  1  0  0  0
  2 19  1  0  0  0
  3 20  1  0  0  0
  3 21  1  0  0  0
  3 22  1  0  0  0
  4  5  1  0  0  0
  4 23  1  0  0  0
  4 24  1  0  0  0
  5  6  2  0  0  0
  5 10  1  0  0  0
  6  7  1  0  0  0
  6 25  1  0  0  0
  7  8  2  0  0  0
  7 26  1  0  0  0
  8  9  1  0  0  0
  8 11  1  0  0  0
  9 10  2  0  0  0
  9 27  1  0  0  0
 10 28  1  0  0  0
 11 12  1  0  0  0
 11 13  1  0  0  0
 11 29  1  0  0  0
 12 30  1  0  0  0
 12 31  1  0  0  0
 12 32  1  0  0  0
 13 14  1  0  0  0
 13 15  2  0  0  0
 14 33  1  0  0  0
M  END
>  <likely_enzyme_classes>
monooxygenase; decarboxylase

>  <activity>
-11.7

>  <molID>
mol000036

>  <name>
ibuprofen

>  <reference>
Boix et al. (2016); Baena-Nogueras et al. (2017)

>  <speciation_state_pH7.4>
anionic

>  <substance_type>
nonsteroidal anti-inflammatory drug

>  <smiles>
CC(C)Cc1ccc(C(C)C(=O)O)cc1

>  <inchi>
InChI=1S/C13H18O2/c1-9(2)8-11-4-6-12(7-5-11)10(3)13(14)15/h4-7,9-10H,8H2,1-3H3,(H,14,15)

>  <inchikey>
HEFNNWSXXWATRW-UHFFFAOYSA-N

$$$$
