gemfibrozil
 OpenBabel07241711303D
CORINA evaluation license 3.49 0066  11.04.2013
 40 40  0  0  0  0  0  0  0  0999 V2000
   -4.3335    2.9450   -0.0010 C   0  0  0  0  0
   -4.0840    1.4588   -0.0009 C   0  0  0  0  0
   -2.7898    0.9764   -0.0011 C   0  0  0  0  0
   -2.5607   -0.3921   -0.0010 C   0  0  0  0  0
   -1.2882   -0.8693   -0.0007 O   0  0  0  0  0
   -0.2338    0.0952   -0.0006 C   0  0  0  0  0
    1.1161   -0.6251   -0.0003 C   0  0  0  0  0
    2.2451    0.4075   -0.0001 C   0  0  0  0  0
    3.5950   -0.3127    0.0002 C   0  0  0  0  0
    3.7052   -1.1891    1.2495 C   0  0  0  0  0
    3.7057   -1.1891   -1.2490 C   0  0  0  0  0
    4.7070    0.7044    0.0003 C   0  0  0  0  0
    5.9868    0.2996    0.0006 O   0  0  0  0  0
    4.4466    1.8842    0.0003 O   0  0  0  0  0
   -3.6327   -1.2724   -0.0007 C   0  0  0  0  0
   -3.3876   -2.7593   -0.0001 C   0  0  0  0  0
   -4.9255   -0.7848   -0.0005 C   0  0  0  0  0
   -5.1510    0.5791    0.0051 C   0  0  0  0  0
   -4.3939    3.3032   -1.0287 H   0  0  0  0  0
   -5.2713    3.1560    0.5130 H   0  0  0  0  0
   -3.5159    3.4507    0.5126 H   0  0  0  0  0
   -1.9568    1.6638   -0.0017 H   0  0  0  0  0
   -0.3123    0.7195   -0.8906 H   0  0  0  0  0
   -0.3126    0.7196    0.8894 H   0  0  0  0  0
    1.1946   -1.2494    0.8897 H   0  0  0  0  0
    1.1950   -1.2495   -0.8902 H   0  0  0  0  0
    2.1666    1.0319   -0.8901 H   0  0  0  0  0
    2.1663    1.0319    0.8898 H   0  0  0  0  0
    2.9009   -1.9247    1.2493 H   0  0  0  0  0
    4.6669   -1.7022    1.2497 H   0  0  0  0  0
    3.6263   -0.5647    2.1394 H   0  0  0  0  0
    3.6272   -0.5648   -2.1390 H   0  0  0  0  0
    4.6673   -1.7023   -1.2488 H   0  0  0  0  0
    2.9013   -1.9248   -1.2491 H   0  0  0  0  0
    6.6652    0.9886    0.0007 H   0  0  0  0  0
   -3.3285   -3.1174    1.0277 H   0  0  0  0  0
   -4.2065   -3.2628   -0.5138 H   0  0  0  0  0
   -2.4503   -2.9732   -0.5138 H   0  0  0  0  0
   -5.7605   -1.4698   -0.0006 H   0  0  0  0  0
   -6.1623    0.9583    0.0057 H   0  0  0  0  0
  1  2  1  0  0  0
  1 19  1  0  0  0
  1 20  1  0  0  0
  1 21  1  0  0  0
  2  3  2  0  0  0
  2 18  1  0  0  0
  3  4  1  0  0  0
  3 22  1  0  0  0
  4  5  1  0  0  0
  4 15  2  0  0  0
  5  6  1  0  0  0
  6  7  1  0  0  0
  6 23  1  0  0  0
  6 24  1  0  0  0
  7  8  1  0  0  0
  7 25  1  0  0  0
  7 26  1  0  0  0
  8  9  1  0  0  0
  8 27  1  0  0  0
  8 28  1  0  0  0
  9 10  1  0  0  0
  9 11  1  0  0  0
  9 12  1  0  0  0
 10 29  1  0  0  0
 10 30  1  0  0  0
 10 31  1  0  0  0
 11 32  1  0  0  0
 11 33  1  0  0  0
 11 34  1  0  0  0
 12 13  1  0  0  0
 12 14  2  0  0  0
 13 35  1  0  0  0
 15 16  1  0  0  0
 15 17  1  0  0  0
 16 36  1  0  0  0
 16 37  1  0  0  0
 16 38  1  0  0  0
 17 18  2  0  0  0
 17 39  1  0  0  0
 18 40  1  0  0  0
M  END
>  <likely_enzyme_classes>
monooxygenase; methyl hydroxylase

>  <activity>
-12

>  <molID>
mol000035

>  <name>
gemfibrozil

>  <reference>
Boix et al. (2016); Baena-Nogueras et al. (2017)

>  <speciation_state_pH7.4>
anionic

>  <substance_type>
lipid regulating drug

>  <smiles>
Cc1ccc(C)c(OCCCC(C)(C)C(=O)O)c1

>  <inchi>
InChI=1S/C15H22O3/c1-11-6-7-12(2)13(10-11)18-9-5-8-15(3,4)14(16)17/h6-7,10H,5,8-9H2,1-4H3,(H,16,17)

>  <inchikey>
HEMJJKBWTPKOJG-UHFFFAOYSA-N

$$$$
