styrene oxide
 OpenBabel07241711303D
CORINA evaluation license 3.49 0066  11.04.2013
 17 18  0  0  0  0  0  0  0  0999 V2000
    2.5242    0.3380    0.7803 C   0  0  0  0  0
    2.4907   -0.6409   -0.2602 O   0  0  0  0  0
    1.5973    0.4613   -0.4308 C   0  0  0  0  0
    0.1264    0.2124   -0.2175 C   0  0  0  0  0
   -0.7504    1.2780   -0.1366 C   0  0  0  0  0
   -2.0996    1.0497    0.0591 C   0  0  0  0  0
   -2.5722   -0.2443    0.1735 C   0  0  0  0  0
   -1.6956   -1.3100    0.0917 C   0  0  0  0  0
   -0.3469   -1.0819   -0.1083 C   0  0  0  0  0
    2.0756    0.0762    1.7386 H   0  0  0  0  0
    3.3890    0.9998    0.8274 H   0  0  0  0  0
    1.8462    1.2044   -1.1883 H   0  0  0  0  0
   -0.3812    2.2890   -0.2260 H   0  0  0  0  0
   -2.7845    1.8823    0.1230 H   0  0  0  0  0
   -3.6262   -0.4227    0.3271 H   0  0  0  0  0
   -2.0647   -2.3210    0.1814 H   0  0  0  0  0
    0.3380   -1.9145   -0.1722 H   0  0  0  0  0
  1  2  1  0  0  0
  1  3  1  0  0  0
  1 10  1  0  0  0
  1 11  1  0  0  0
  2  3  1  0  0  0
  3  4  1  0  0  0
  3 12  1  0  0  0
  4  5  2  0  0  0
  4  9  1  0  0  0
  5  6  1  0  0  0
  5 13  1  0  0  0
  6  7  2  0  0  0
  6 14  1  0  0  0
  7  8  1  0  0  0
  7 15  1  0  0  0
  8  9  2  0  0  0
  8 16  1  0  0  0
  9 17  1  0  0  0
M  END
>  <likely_enzyme_classes>
epoxide hydrolase; dioxygenase

>  <activity>
-9.8

>  <molID>
mol000157

>  <name>
styrene oxide

>  <reference>
Mackay handbook of physical-chemical properties

>  <speciation_state_pH7.4>
neutral

>  <substance_type>
chemical substance

>  <smiles>
c1ccc(C2CO2)cc1

>  <inchi>
InChI=1S/C8H8O/c1-2-4-7(5-3-1)8-6-9-8/h1-5,8H,6H2

>  <inchikey>
AWMVMTVKBNGEAK-UHFFFAOYSA-N

$$$$
