carbamazepine
 OpenBabel07241711303D
CORINA evaluation license 3.49 0066  11.04.2013
 30 32  0  0  0  0  0  0  0  0999 V2000
    1.2046    2.6447    0.8862 N   0  0  0  0  0
    0.0259    2.0466    0.6227 C   0  0  0  0  0
   -1.0137    2.6214    0.8669 O   0  0  0  0  0
    0.0026    0.8098    0.0878 N   0  0  0  0  0
   -1.1758    0.2046   -0.1787 C   0  0  0  0  0
   -1.9932    0.7445   -1.0607 C   0  0  0  0  0
   -3.2544    0.0707   -1.4105 C   0  0  0  0  0
   -3.5648   -1.0753   -0.8426 C   0  0  0  0  0
   -2.6625   -1.6678    0.1579 C   0  0  0  0  0
   -1.5395   -1.0573    0.4841 C   0  0  0  0  0
   -0.6800   -1.6370    1.5200 C   0  0  0  0  0
    0.6123   -1.6585    1.5156 C   0  0  0  0  0
    1.4829   -1.1075    0.4733 C   0  0  0  0  0
    2.5829   -1.7548    0.1396 C   0  0  0  0  0
    3.4966   -1.1930   -0.8682 C   0  0  0  0  0
    3.2198   -0.0377   -1.4347 C   0  0  0  0  0
    1.9844    0.6778   -1.0756 C   0  0  0  0  0
    1.1575    0.1662   -0.1918 C   0  0  0  0  0
    1.2214    3.5349    1.2711 H   0  0  0  0  0
    2.0361    2.1834    0.6946 H   0  0  0  0  0
   -1.7371    1.6840   -1.5277 H   0  0  0  0  0
   -3.9238    0.5161   -2.1315 H   0  0  0  0  0
   -4.4811   -1.5804   -1.1103 H   0  0  0  0  0
   -2.9210   -2.6057    0.6270 H   0  0  0  0  0
   -1.1734   -2.0890    2.3677 H   0  0  0  0  0
    1.0964   -2.1263    2.3601 H   0  0  0  0  0
    2.8139   -2.7002    0.6077 H   0  0  0  0  0
    4.3938   -1.7281   -1.1423 H   0  0  0  0  0
    3.8979    0.3847   -2.1614 H   0  0  0  0  0
    1.7560    1.6251   -1.5413 H   0  0  0  0  0
  1  2  1  0  0  0
  1 19  1  0  0  0
  1 20  1  0  0  0
  2  3  2  0  0  0
  2  4  1  0  0  0
  4  5  1  0  0  0
  4 18  1  0  0  0
  5  6  2  0  0  0
  5 10  1  0  0  0
  6  7  1  0  0  0
  6 21  1  0  0  0
  7  8  2  0  0  0
  7 22  1  0  0  0
  8  9  1  0  0  0
  8 23  1  0  0  0
  9 10  2  0  0  0
  9 24  1  0  0  0
 10 11  1  0  0  0
 11 12  2  0  0  0
 11 25  1  0  0  0
 12 13  1  0  0  0
 12 26  1  0  0  0
 13 14  2  0  0  0
 13 18  1  0  0  0
 14 15  1  0  0  0
 14 27  1  0  0  0
 15 16  2  0  0  0
 15 28  1  0  0  0
 16 17  1  0  0  0
 16 29  1  0  0  0
 17 18  2  0  0  0
 17 30  1  0  0  0
M  END
>  <likely_enzyme_classes>
amidohydrolase

>  <activity>
-11.8

>  <molID>
mol000150

>  <name>
carbamazepine

>  <reference>
Lam et al. (2004); Cormier et al. (2015); Baena-Nogueras et al. (2017)

>  <speciation_state_pH7.4>
neutral

>  <substance_type>
anticonvulsant drug

>  <smiles>
N=C(O)N1c2ccccc2C=Cc2ccccc21

>  <inchi>
InChI=1S/C15H12N2O/c16-15(18)17-13-7-3-1-5-11(13)9-10-12-6-2-4-8-14(12)17/h1-10H,(H2,16,18)

>  <inchikey>
FFGPTBGBLSHEPO-UHFFFAOYSA-N

$$$$
