aspirin
 OpenBabel07241711303D
CORINA evaluation license 3.49 0066  11.04.2013
 21 21  0  0  0  0  0  0  0  0999 V2000
    3.5165    0.5878    0.0965 C   0  0  0  0  0
    2.0426    0.5986   -0.2177 C   0  0  0  0  0
    1.6700    0.6134   -1.3670 O   0  0  0  0  0
    1.1433    0.5918    0.7798 O   0  0  0  0  0
   -0.1633    0.7086    0.4321 C   0  0  0  0  0
   -0.7665    1.9564    0.4005 C   0  0  0  0  0
   -2.0963    2.0739    0.0460 C   0  0  0  0  0
   -2.8367    0.9497   -0.2797 C   0  0  0  0  0
   -2.2534   -0.2988   -0.2532 C   0  0  0  0  0
   -0.9077   -0.4315    0.0976 C   0  0  0  0  0
   -0.2771   -1.7640    0.1280 C   0  0  0  0  0
   -0.9992   -2.8583   -0.1830 O   0  0  0  0  0
    0.8936   -1.8753    0.4335 O   0  0  0  0  0
    4.0862    0.5955   -0.8327 H   0  0  0  0  0
    3.7690    1.4700    0.6848 H   0  0  0  0  0
    3.7603   -0.3098    0.6648 H   0  0  0  0  0
   -0.1960    2.8377    0.6538 H   0  0  0  0  0
   -2.5616    3.0483    0.0229 H   0  0  0  0  0
   -3.8760    1.0518   -0.5552 H   0  0  0  0  0
   -2.8346   -1.1728   -0.5075 H   0  0  0  0  0
   -0.5424   -3.7099   -0.1490 H   0  0  0  0  0
  1  2  1  0  0  0
  1 14  1  0  0  0
  1 15  1  0  0  0
  1 16  1  0  0  0
  2  3  2  0  0  0
  2  4  1  0  0  0
  4  5  1  0  0  0
  5  6  2  0  0  0
  5 10  1  0  0  0
  6  7  1  0  0  0
  6 17  1  0  0  0
  7  8  2  0  0  0
  7 18  1  0  0  0
  8  9  1  0  0  0
  8 19  1  0  0  0
  9 10  2  0  0  0
  9 20  1  0  0  0
 10 11  1  0  0  0
 11 12  1  0  0  0
 11 13  2  0  0  0
 12 21  1  0  0  0
M  END
>  <likely_enzyme_classes>
esterase

>  <activity>
-10.5

>  <molID>
mol000097

>  <name>
aspirin

>  <reference>
European Chemicals Bureau

>  <speciation_state_pH7.4>
anionic

>  <substance_type>
nonsteroidal anti-inflammatory drug

>  <smiles>
CC(=O)Oc1ccccc1C(=O)O

>  <inchi>
InChI=1S/C9H8O4/c1-6(10)13-8-5-3-2-4-7(8)9(11)12/h2-5H,1H3,(H,11,12)

>  <inchikey>
BSYNRYMUTXBXSQ-UHFFFAOYSA-N

$$$$
