methyl isobutyl ketone
 OpenBabel07241711303D
CORINA evaluation license 3.49 0066  11.04.2013
 19 18  0  0  0  0  0  0  0  0999 V2000
   -1.3372    1.2324   -0.6097 C   0  0  0  0  0
   -1.2118    0.0031    0.2926 C   0  0  0  0  0
   -2.4849   -0.8389    0.1871 C   0  0  0  0  0
   -0.0091   -0.8331   -0.1491 C   0  0  0  0  0
    1.2574   -0.0466    0.0705 C   0  0  0  0  0
    2.5911   -0.6507   -0.2866 C   0  0  0  0  0
    1.2037    1.0679    0.5325 O   0  0  0  0  0
   -1.4767    0.9124   -1.6423 H   0  0  0  0  0
   -2.1940    1.8282   -0.2951 H   0  0  0  0  0
   -0.4303    1.8323   -0.5346 H   0  0  0  0  0
   -1.0724    0.3231    1.3252 H   0  0  0  0  0
   -2.6243   -1.1589   -0.8455 H   0  0  0  0  0
   -2.3955   -1.7147    0.8299 H   0  0  0  0  0
   -3.3417   -0.2432    0.5017 H   0  0  0  0  0
    0.0283   -1.7526    0.4351 H   0  0  0  0  0
   -0.1058   -1.0784   -1.2067 H   0  0  0  0  0
    2.8352   -0.4071   -1.3206 H   0  0  0  0  0
    3.3603   -0.2487    0.3727 H   0  0  0  0  0
    2.5423   -1.7334   -0.1701 H   0  0  0  0  0
  1  2  1  0  0  0
  1  8  1  0  0  0
  1  9  1  0  0  0
  1 10  1  0  0  0
  2  3  1  0  0  0
  2  4  1  0  0  0
  2 11  1  0  0  0
  3 12  1  0  0  0
  3 13  1  0  0  0
  3 14  1  0  0  0
  4  5  1  0  0  0
  4 15  1  0  0  0
  4 16  1  0  0  0
  5  6  1  0  0  0
  5  7  2  0  0  0
  6 17  1  0  0  0
  6 18  1  0  0  0
  6 19  1  0  0  0
M  END
>  <likely_enzyme_classes>
monooxygenase

>  <activity>
-9.8

>  <molID>
mol000017

>  <name>
methyl isobutyl ketone

>  <reference>
Mackay handbook of physical-chemical properties

>  <speciation_state_pH7.4>
neutral

>  <substance_type>
chemical substance

>  <smiles>
CC(=O)CC(C)C

>  <inchi>
InChI=1S/C6H12O/c1-5(2)4-6(3)7/h5H,4H2,1-3H3

>  <inchikey>
NTIZESTWPVYFNL-UHFFFAOYSA-N

$$$$
