Phenylbutazone
 OpenBabel07241711303D
CORINA evaluation license 3.49 0066  11.04.2013
 43 45  0  0  0  0  0  0  0  0999 V2000
    6.4020   -0.1039    1.4496 C   0  0  0  0  0
    5.6332   -0.0603    0.1275 C   0  0  0  0  0
    4.1299   -0.0533    0.4116 C   0  0  0  0  0
    3.3611   -0.0098   -0.9105 C   0  0  0  0  0
    1.8804   -0.0029   -0.6306 C   0  0  0  0  0
    1.0873    1.1009   -0.5465 C   0  0  0  0  0
   -0.1919    0.6865   -0.2801 N   0  0  0  0  0
   -0.1856   -0.7122   -0.1980 N   0  0  0  0  0
    1.0756   -1.1346   -0.4169 C   0  0  0  0  0
    1.4529   -2.2936   -0.4208 O   0  0  0  0  0
   -1.2930   -1.5264    0.0598 C   0  0  0  0  0
   -2.1337   -1.2402    1.1277 C   0  0  0  0  0
   -3.2265   -2.0463    1.3796 C   0  0  0  0  0
   -3.4840   -3.1373    0.5699 C   0  0  0  0  0
   -2.6490   -3.4250   -0.4942 C   0  0  0  0  0
   -1.5578   -2.6196   -0.7549 C   0  0  0  0  0
   -1.3070    1.5143   -0.1180 C   0  0  0  0  0
   -1.2346    2.6247    0.7134 C   0  0  0  0  0
   -2.3379    3.4402    0.8713 C   0  0  0  0  0
   -3.5140    3.1521    0.2033 C   0  0  0  0  0
   -3.5894    2.0474   -0.6251 C   0  0  0  0  0
   -2.4879    1.2312   -0.7923 C   0  0  0  0  0
    1.4908    2.3803   -0.6983 O   0  0  0  0  0
    6.1490    0.7727    2.0460 H   0  0  0  0  0
    6.1316   -1.0065    1.9976 H   0  0  0  0  0
    7.4730   -0.1088    1.2472 H   0  0  0  0  0
    5.9036    0.8423   -0.4205 H   0  0  0  0  0
    5.8862   -0.9369   -0.4689 H   0  0  0  0  0
    3.8595   -0.9560    0.9596 H   0  0  0  0  0
    3.8769    0.8232    1.0081 H   0  0  0  0  0
    3.6315    0.8928   -1.4584 H   0  0  0  0  0
    3.6141   -0.8864   -1.5069 H   0  0  0  0  0
   -1.9329   -0.3885    1.7607 H   0  0  0  0  0
   -3.8803   -1.8246    2.2100 H   0  0  0  0  0
   -4.3390   -3.7663    0.7692 H   0  0  0  0  0
   -2.8529   -4.2778   -1.1247 H   0  0  0  0  0
   -0.9062   -2.8446   -1.5863 H   0  0  0  0  0
   -0.3167    2.8498    1.2359 H   0  0  0  0  0
   -2.2823    4.3037    1.5176 H   0  0  0  0  0
   -4.3755    3.7911    0.3291 H   0  0  0  0  0
   -4.5095    1.8250   -1.1451 H   0  0  0  0  0
   -2.5474    0.3688   -1.4396 H   0  0  0  0  0
    2.4353    2.4756   -0.8823 H   0  0  0  0  0
  1  2  1  0  0  0
  1 24  1  0  0  0
  1 25  1  0  0  0
  1 26  1  0  0  0
  2  3  1  0  0  0
  2 27  1  0  0  0
  2 28  1  0  0  0
  3  4  1  0  0  0
  3 29  1  0  0  0
  3 30  1  0  0  0
  4  5  1  0  0  0
  4 31  1  0  0  0
  4 32  1  0  0  0
  5  6  2  0  0  0
  5  9  1  0  0  0
  6  7  1  0  0  0
  6 23  1  0  0  0
  7  8  1  0  0  0
  7 17  1  0  0  0
  8  9  1  0  0  0
  8 11  1  0  0  0
  9 10  2  0  0  0
 11 12  2  0  0  0
 11 16  1  0  0  0
 12 13  1  0  0  0
 12 33  1  0  0  0
 13 14  2  0  0  0
 13 34  1  0  0  0
 14 15  1  0  0  0
 14 35  1  0  0  0
 15 16  2  0  0  0
 15 36  1  0  0  0
 16 37  1  0  0  0
 17 18  2  0  0  0
 17 22  1  0  0  0
 18 19  1  0  0  0
 18 38  1  0  0  0
 19 20  2  0  0  0
 19 39  1  0  0  0
 20 21  1  0  0  0
 20 40  1  0  0  0
 21 22  2  0  0  0
 21 41  1  0  0  0
 22 42  1  0  0  0
 23 43  1  0  0  0
M  END
>  <likely_enzyme_classes>
monooxygenase; dioxygenase

>  <activity>
-10.7

>  <molID>
mol000173

>  <name>
Phenylbutazone

>  <reference>
Baena-Nogueras et al. (2017)

>  <speciation_state_pH7.4>
anionic

>  <substance_type>
nonsteroidal anti-inflammatory drug

>  <smiles>
CCCCc1c(O)n(-c2ccccc2)n(-c2ccccc2)c1=O

>  <inchi>
InChI=1S/C19H20N2O2/c1-2-3-14-17-18(22)20(15-10-6-4-7-11-15)21(19(17)23)16-12-8-5-9-13-16/h4-13,22H,2-3,14H2,1H3

>  <inchikey>
PKYKNPLSFOKASK-UHFFFAOYSA-N

$$$$
