17b-estradiol
 OpenBabel07241711303D
CORINA evaluation license 3.49 0066  11.04.2013
 44 47  0  0  0  0  0  0  0  0999 V2000
   -2.2690    0.6216   -1.5412 C   0  0  0  0  0
   -2.5118    0.5653   -0.0316 C   0  0  0  0  0
   -1.8380    1.7420    0.6467 C   0  0  0  0  0
   -0.3441    1.7034    0.2727 C   0  0  0  0  0
    0.2787    0.3768    0.6823 C   0  0  0  0  0
   -0.4722   -0.8096    0.0636 C   0  0  0  0  0
    0.2242   -2.0930    0.5156 C   0  0  0  0  0
    1.5823   -2.1703   -0.1810 C   0  0  0  0  0
    2.3369   -0.8732   -0.0538 C   0  0  0  0  0
    1.7359    0.3078    0.3298 C   0  0  0  0  0
    2.4882    1.4720    0.4117 C   0  0  0  0  0
    3.8361    1.4593    0.1231 C   0  0  0  0  0
    4.4464    0.2713   -0.2535 C   0  0  0  0  0
    5.7756    0.2463   -0.5352 O   0  0  0  0  0
    3.6955   -0.8879   -0.3405 C   0  0  0  0  0
   -1.8997   -0.7356    0.5591 C   0  0  0  0  0
   -2.8548   -1.8210    0.0749 C   0  0  0  0  0
   -4.2332   -1.1261   -0.0553 C   0  0  0  0  0
   -4.0068    0.3898    0.2535 C   0  0  0  0  0
   -4.8174    1.2053   -0.5951 O   0  0  0  0  0
   -1.1981    0.6824   -1.7349 H   0  0  0  0  0
   -2.6721   -0.2772   -2.0078 H   0  0  0  0  0
   -2.7637    1.4997   -1.9563 H   0  0  0  0  0
   -2.2825    2.6741    0.2977 H   0  0  0  0  0
   -1.9508    1.6597    1.7277 H   0  0  0  0  0
   -0.2402    1.8314   -0.8047 H   0  0  0  0  0
    0.1745    2.5159    0.7817 H   0  0  0  0  0
    0.2042    0.2917    1.7664 H   0  0  0  0  0
   -0.4417   -0.7380   -1.0236 H   0  0  0  0  0
    0.3657   -2.0736    1.5962 H   0  0  0  0  0
   -0.3807   -2.9566    0.2389 H   0  0  0  0  0
    2.1695   -2.9705    0.2696 H   0  0  0  0  0
    1.4296   -2.3923   -1.2372 H   0  0  0  0  0
    2.0126    2.3965    0.7040 H   0  0  0  0  0
    4.4140    2.3692    0.1895 H   0  0  0  0  0
    6.3365    0.0610    0.2303 H   0  0  0  0  0
    4.1703   -1.8122   -0.6348 H   0  0  0  0  0
   -1.9110   -0.6923    1.6482 H   0  0  0  0  0
   -2.5318   -2.2037   -0.8932 H   0  0  0  0  0
   -2.9072   -2.6302    0.8033 H   0  0  0  0  0
   -4.6104   -1.2309   -1.0726 H   0  0  0  0  0
   -4.9393   -1.5600    0.6526 H   0  0  0  0  0
   -4.2113    0.6045    1.3023 H   0  0  0  0  0
   -5.7676    1.0616   -0.4878 H   0  0  0  0  0
  1  2  1  0  0  0
  1 21  1  0  0  0
  1 22  1  0  0  0
  1 23  1  0  0  0
  2  3  1  0  0  0
  2 16  1  0  0  0
  2 19  1  0  0  0
  3  4  1  0  0  0
  3 24  1  0  0  0
  3 25  1  0  0  0
  4  5  1  0  0  0
  4 26  1  0  0  0
  4 27  1  0  0  0
  5  6  1  0  0  0
  5 10  1  0  0  0
  5 28  1  0  0  0
  6  7  1  0  0  0
  6 16  1  0  0  0
  6 29  1  0  0  0
  7  8  1  0  0  0
  7 30  1  0  0  0
  7 31  1  0  0  0
  8  9  1  0  0  0
  8 32  1  0  0  0
  8 33  1  0  0  0
  9 10  2  0  0  0
  9 15  1  0  0  0
 10 11  1  0  0  0
 11 12  2  0  0  0
 11 34  1  0  0  0
 12 13  1  0  0  0
 12 35  1  0  0  0
 13 14  1  0  0  0
 13 15  2  0  0  0
 14 36  1  0  0  0
 15 37  1  0  0  0
 16 17  1  0  0  0
 16 38  1  0  0  0
 17 18  1  0  0  0
 17 39  1  0  0  0
 17 40  1  0  0  0
 18 19  1  0  0  0
 18 41  1  0  0  0
 18 42  1  0  0  0
 19 20  1  0  0  0
 19 43  1  0  0  0
 20 44  1  0  0  0
M  END
>  <likely_enzyme_classes>
monooxygenase; alcohol dehydrogenase

>  <activity>
-8.9

>  <molID>
mol000004

>  <name>
17b-estradiol

>  <reference>
Jurgens et al. (2002); Cormier et al. (2015)

>  <speciation_state_pH7.4>
neutral

>  <substance_type>
steroidal drug

>  <smiles>
C[C@]12CC[C@@H]3c4ccc(O)cc4CC[C@H]3[C@@H]1CC[C@@H]2O

>  <inchi>
InChI=1S/C18H24O2/c1-18-9-8-14-13-5-3-12(19)10-11(13)2-4-15(14)16(18)6-7-17(18)20/h3,5,10,14-17,19-20H,2,4,6-9H2,1H3/t14-,15-,16+,17+,18+/m1/s1

>  <inchikey>
VOXZDWNPVJITMN-ZBRFXRBCSA-N

$$$$
