endothall
 OpenBabel07241711303D
CORINA evaluation license 3.49 0066  11.04.2013
 23 24  0  0  0  0  0  0  0  0999 V2000
    2.1576    1.5905    0.8063 O   0  0  0  0  0
    1.1029    1.3088    0.0253 C   0  0  0  0  0
    1.1713    1.4833   -1.1683 O   0  0  0  0  0
   -0.1666    0.7750    0.6373 C   0  0  0  0  0
   -1.3969    1.1199   -0.2546 C   0  0  0  0  0
   -2.6443    0.7751    0.6132 C   0  0  0  0  0
   -2.6444   -0.7749    0.6132 C   0  0  0  0  0
   -1.3970   -1.1199   -0.2546 C   0  0  0  0  0
   -1.3877    0.0000   -1.1995 O   0  0  0  0  0
   -0.1667   -0.7750    0.6373 C   0  0  0  0  0
    1.1028   -1.3090    0.0254 C   0  0  0  0  0
    2.1576   -1.5904    0.8063 O   0  0  0  0  0
    1.1710   -1.4838   -1.1682 O   0  0  0  0  0
    2.9498    1.9306    0.3683 H   0  0  0  0  0
   -0.3002    1.1640    1.6467 H   0  0  0  0  0
   -1.3926    2.1189   -0.6906 H   0  0  0  0  0
   -2.5289    1.1613    1.6259 H   0  0  0  0  0
   -3.5537    1.1613    0.1528 H   0  0  0  0  0
   -2.5290   -1.1610    1.6260 H   0  0  0  0  0
   -3.5538   -1.1610    0.1528 H   0  0  0  0  0
   -1.3986   -2.1144   -0.7007 H   0  0  0  0  0
   -0.3003   -1.1639    1.6467 H   0  0  0  0  0
    2.9497   -1.9306    0.3683 H   0  0  0  0  0
  1  2  1  0  0  0
  1 14  1  0  0  0
  2  3  2  0  0  0
  2  4  1  0  0  0
  4  5  1  0  0  0
  4 10  1  0  0  0
  4 15  1  0  0  0
  5  6  1  0  0  0
  5  9  1  0  0  0
  5 16  1  0  0  0
  6  7  1  0  0  0
  6 17  1  0  0  0
  6 18  1  0  0  0
  7  8  1  0  0  0
  7 19  1  0  0  0
  7 20  1  0  0  0
  8  9  1  0  0  0
  8 10  1  0  0  0
  8 21  1  0  0  0
 10 11  1  0  0  0
 10 22  1  0  0  0
 11 12  1  0  0  0
 11 13  2  0  0  0
 12 23  1  0  0  0
M  END
>  <likely_enzyme_classes>
monooxygenase

>  <activity>
-10.9

>  <molID>
mol000039

>  <name>
endothall

>  <reference>
Hiltibran (1962)

>  <speciation_state_pH7.4>
anionic

>  <substance_type>
herbicide

>  <smiles>
O=C(O)C1C2CCC(O2)C1C(=O)O

>  <inchi>
InChI=1S/C8H10O5/c9-7(10)5-3-1-2-4(13-3)6(5)8(11)12/h3-6H,1-2H2,(H,9,10)(H,11,12)

>  <inchikey>
GXEKYRXVRROBEV-UHFFFAOYSA-N

$$$$
