1,2-dichloroethane
 OpenBabel07241711303D
CORINA evaluation license 3.49 0066  11.04.2013
  8  7  0  0  0  0  0  0  0  0999 V2000
   -2.1800    0.0553   -0.0000 Cl  0  0  0  0  0
   -0.4942   -0.5840    0.0000 C   0  0  0  0  0
    0.4942    0.5840   -0.0000 C   0  0  0  0  0
    2.1800   -0.0553   -0.0000 Cl  0  0  0  0  0
   -0.3366   -1.1932    0.8900 H   0  0  0  0  0
   -0.3366   -1.1933   -0.8900 H   0  0  0  0  0
    0.3366    1.1932   -0.8900 H   0  0  0  0  0
    0.3366    1.1933    0.8900 H   0  0  0  0  0
  1  2  1  0  0  0
  2  3  1  0  0  0
  2  5  1  0  0  0
  2  6  1  0  0  0
  3  4  1  0  0  0
  3  7  1  0  0  0
  3  8  1  0  0  0
M  END
>  <likely_enzyme_classes>
dehalogenase

>  <activity>
-11.4

>  <molID>
mol000102

>  <name>
1,2-dichloroethane

>  <reference>
Capel and Larson (1995)

>  <speciation_state_pH7.4>
neutral

>  <substance_type>
chemical substance

>  <smiles>
ClCCCl

>  <inchi>
InChI=1S/C2H4Cl2/c3-1-2-4/h1-2H2

>  <inchikey>
WSLDOOZREJYCGB-UHFFFAOYSA-N

$$$$
