ethylester of 4-chlorophenoxyacetic acid
 OpenBabel07241711303D
CORINA evaluation license 3.49 0066  11.04.2013
 25 25  0  0  0  0  0  0  0  0999 V2000
    6.2939    1.1420   -0.0005 C   0  0  0  0  0
    5.2466    0.0267    0.0001 C   0  0  0  0  0
    3.9173    0.6110   -0.0005 O   0  0  0  0  0
    2.8782   -0.2386   -0.0001 C   0  0  0  0  0
    3.0728   -1.4311    0.0007 O   0  0  0  0  0
    1.4687    0.2948   -0.0007 C   0  0  0  0  0
    0.5464   -0.7967   -0.0001 O   0  0  0  0  0
   -0.7769   -0.4863   -0.0006 C   0  0  0  0  0
   -1.7273   -1.4968   -0.0000 C   0  0  0  0  0
   -3.0718   -1.1794    0.0000 C   0  0  0  0  0
   -3.4707    0.1455   -0.0005 C   0  0  0  0  0
   -5.1608    0.5420   -0.0004 Cl  0  0  0  0  0
   -2.5243    1.1549   -0.0006 C   0  0  0  0  0
   -1.1789    0.8414    0.0042 C   0  0  0  0  0
    7.2918    0.7034   -0.0000 H   0  0  0  0  0
    6.1682    1.7580   -0.8909 H   0  0  0  0  0
    6.1679    1.7593    0.8890 H   0  0  0  0  0
    5.3726   -0.5905   -0.8895 H   0  0  0  0  0
    5.3723   -0.5893    0.8905 H   0  0  0  0  0
    1.3106    0.9046    0.8888 H   0  0  0  0  0
    1.3109    0.9033   -0.8912 H   0  0  0  0  0
   -1.4163   -2.5311   -0.0000 H   0  0  0  0  0
   -3.8120   -1.9658    0.0001 H   0  0  0  0  0
   -2.8376    2.1884   -0.0006 H   0  0  0  0  0
   -0.4404    1.6295    0.0041 H   0  0  0  0  0
  1  2  1  0  0  0
  1 15  1  0  0  0
  1 16  1  0  0  0
  1 17  1  0  0  0
  2  3  1  0  0  0
  2 18  1  0  0  0
  2 19  1  0  0  0
  3  4  1  0  0  0
  4  5  2  0  0  0
  4  6  1  0  0  0
  6  7  1  0  0  0
  6 20  1  0  0  0
  6 21  1  0  0  0
  7  8  1  0  0  0
  8  9  2  0  0  0
  8 14  1  0  0  0
  9 10  1  0  0  0
  9 22  1  0  0  0
 10 11  2  0  0  0
 10 23  1  0  0  0
 11 12  1  0  0  0
 11 13  1  0  0  0
 13 14  2  0  0  0
 13 24  1  0  0  0
 14 25  1  0  0  0
M  END
>  <likely_enzyme_classes>
esterase

>  <activity>
-9.5

>  <molID>
mol000091

>  <name>
ethylester of 4-chlorophenoxyacetic acid

>  <reference>
Paris et al. (1984)

>  <speciation_state_pH7.4>
neutral

>  <substance_type>
chemical substance

>  <smiles>
CCOC(=O)COc1ccc(Cl)cc1

>  <inchi>
InChI=1S/C10H11ClO3/c1-2-13-10(12)7-14-9-5-3-8(11)4-6-9/h3-6H,2,7H2,1H3

>  <inchikey>
QULRDJFRGVHKLN-UHFFFAOYSA-N

$$$$
