2,4,6-trinitrophenol
 OpenBabel07241711303D
CORINA evaluation license 3.49 0066  11.04.2013
 20 20  0  0  0  0  0  0  0  0999 V2000
    2.5276   -0.1316   -0.0078 O   0  0  0  0  0
    1.1745   -0.0588   -0.0051 C   0  0  0  0  0
    0.5473    1.1858   -0.0048 C   0  0  0  0  0
   -0.8138    1.2674   -0.0020 C   0  0  0  0  0
   -1.5859    0.0897    0.0006 C   0  0  0  0  0
   -0.9446   -1.1640    0.0003 C   0  0  0  0  0
    0.4173   -1.2289   -0.0083 C   0  0  0  0  0
    1.0935   -2.5456   -0.0086 N   0  0  0  0  0
    0.4335   -3.5692   -0.0013 O   0  0  0  0  0
    2.3100   -2.6055   -0.0162 O   0  0  0  0  0
   -2.9245    0.1618    0.0038 N   0  0  0  0  0
   -3.5893   -0.8588    0.0060 O   0  0  0  0  0
   -3.4759    1.2478    0.0044 O   0  0  0  0  0
    1.3609    2.4223   -0.0070 N   0  0  0  0  0
    0.8144    3.5109   -0.0068 O   0  0  0  0  0
    2.5768    2.3513   -0.0091 O   0  0  0  0  0
    2.9222   -0.1520    0.8748 H   0  0  0  0  0
   -1.2983    2.2326   -0.0014 H   0  0  0  0  0
   -1.5300   -2.0716    0.0026 H   0  0  0  0  0
   -4.5508   -0.7564    0.0082 H   0  0  0  0  0
  1  2  1  0  0  0
  1 17  1  0  0  0
  2  3  2  0  0  0
  2  7  1  0  0  0
  3  4  1  0  0  0
  3 14  1  0  0  0
  4  5  2  0  0  0
  4 18  1  0  0  0
  5  6  1  0  0  0
  5 11  1  0  0  0
  6  7  2  0  0  0
  6 19  1  0  0  0
  7  8  1  0  0  0
  8  9  1  0  0  0
  8 10  2  0  0  0
 11 12  1  0  0  0
 11 13  2  0  0  0
 12 20  1  0  0  0
 14 15  1  0  0  0
 14 16  2  0  0  0
M  CHG  5   8   1   9  -1  11   1  14   1  15  -1
M  END
>  <likely_enzyme_classes>
hydride transferase

>  <activity>
-11.4

>  <molID>
mol000167

>  <name>
2,4,6-trinitrophenol

>  <reference>
Mackay handbook of physical-chemical properties

>  <speciation_state_pH7.4>
anionic

>  <substance_type>
chemical substance

>  <smiles>
O=[N+]([O-])c1cc([N+](=O)O)cc([N+](=O)[O-])c1O

>  <inchi>
InChI=1S/C6H3N3O7/c10-6-4(8(13)14)1-3(7(11)12)2-5(6)9(15)16/h1-2H,(H-,10,11,12)/p+1

>  <inchikey>
VZUACKUDFFZPEZ-UHFFFAOYSA-O

$$$$
