bis(chloromethyl)ether
 OpenBabel07241711303D
CORINA evaluation license 3.49 0066  11.04.2013
  9  8  0  0  0  0  0  0  0  0999 V2000
   -2.1945   -0.3721    0.1424 Cl  0  0  0  0  0
   -0.8534    0.3238   -0.8415 C   0  0  0  0  0
   -0.0000    1.1025   -0.0005 O   0  0  0  0  0
    0.8534    0.3246    0.8412 C   0  0  0  0  0
    2.1945   -0.3722   -0.1421 Cl  0  0  0  0  0
   -0.2784   -0.4837   -1.2947 H   0  0  0  0  0
   -1.2687    0.9580   -1.6247 H   0  0  0  0  0
    1.2687    0.9595    1.6238 H   0  0  0  0  0
    0.2784   -0.4826    1.2952 H   0  0  0  0  0
  1  2  1  0  0  0
  2  3  1  0  0  0
  2  6  1  0  0  0
  2  7  1  0  0  0
  3  4  1  0  0  0
  4  5  1  0  0  0
  4  8  1  0  0  0
  4  9  1  0  0  0
M  END
>  <likely_enzyme_classes>
monooxygenase

>  <activity>
-10.5

>  <molID>
mol000060

>  <name>
bis(chloromethyl)ether

>  <reference>
Mackay handbook of physical-chemical properties

>  <speciation_state_pH7.4>
neutral

>  <substance_type>
chemical substance

>  <smiles>
ClCOCCl

>  <inchi>
InChI=1S/C2H4Cl2O/c3-1-5-2-4/h1-2H2

>  <inchikey>
HRQGCQVOJVTVLU-UHFFFAOYSA-N

$$$$
