venlafaxine
 OpenBabel07241711303D
CORINA evaluation license 3.49 0066  11.04.2013
 47 48  0  0  0  0  0  0  0  0999 V2000
   -4.9994   -1.6791    0.9903 C   0  0  0  0  0
   -4.4886   -1.2573   -0.2759 O   0  0  0  0  0
   -3.2141   -0.7864   -0.3012 C   0  0  0  0  0
   -2.6545   -0.3599   -1.4969 C   0  0  0  0  0
   -1.3587    0.1184   -1.5200 C   0  0  0  0  0
   -0.6195    0.1722   -0.3527 C   0  0  0  0  0
   -1.1747   -0.2527    0.8401 C   0  0  0  0  0
   -2.4723   -0.7260    0.8696 C   0  0  0  0  0
    0.7938    0.6944   -0.3808 C   0  0  0  0  0
    0.9047    1.9153    0.5345 C   0  0  0  0  0
    0.0264    2.9823    0.0362 N   0  0  0  0  0
   -0.1887    4.0099    1.0637 C   0  0  0  0  0
    0.5642    3.5743   -1.1960 C   0  0  0  0  0
    1.7502   -0.3963    0.1057 C   0  0  0  0  0
    1.4877   -0.6812    1.4812 O   0  0  0  0  0
    1.5438   -1.6637   -0.7261 C   0  0  0  0  0
    2.5002   -2.7544   -0.2396 C   0  0  0  0  0
    3.9441   -2.2725   -0.3940 C   0  0  0  0  0
    4.1506   -1.0051    0.4377 C   0  0  0  0  0
    3.1941    0.0856   -0.0488 C   0  0  0  0  0
   -4.9832   -0.8403    1.6863 H   0  0  0  0  0
   -6.0238   -2.0315    0.8698 H   0  0  0  0  0
   -4.3807   -2.4871    1.3808 H   0  0  0  0  0
   -3.2314   -0.4021   -2.4090 H   0  0  0  0  0
   -0.9226    0.4502   -2.4506 H   0  0  0  0  0
   -0.5951   -0.2103    1.7504 H   0  0  0  0  0
   -2.9055   -1.0577    1.8016 H   0  0  0  0  0
    1.0557    0.9792   -1.3998 H   0  0  0  0  0
    0.6043    1.6400    1.5455 H   0  0  0  0  0
    1.9357    2.2689    0.5454 H   0  0  0  0  0
    0.7687    4.4483    1.3452 H   0  0  0  0  0
   -0.8423    4.7876    0.6685 H   0  0  0  0  0
   -0.6522    3.5563    1.9397 H   0  0  0  0  0
    0.6755    2.7984   -1.9534 H   0  0  0  0  0
   -0.1199    4.3412   -1.5592 H   0  0  0  0  0
    1.5361    4.0226   -0.9896 H   0  0  0  0  0
    2.0585   -1.3652    1.8570 H   0  0  0  0  0
    0.5152   -2.0070   -0.6161 H   0  0  0  0  0
    1.7441   -1.4464   -1.7753 H   0  0  0  0  0
    2.3000   -2.9717    0.8096 H   0  0  0  0  0
    2.3532   -3.6573   -0.8321 H   0  0  0  0  0
    4.6255   -3.0495   -0.0474 H   0  0  0  0  0
    4.1444   -2.0552   -1.4432 H   0  0  0  0  0
    3.9503   -1.2224    1.4869 H   0  0  0  0  0
    5.1792   -0.6618    0.3277 H   0  0  0  0  0
    3.3944    0.3029   -1.0980 H   0  0  0  0  0
    3.3412    0.9886    0.5438 H   0  0  0  0  0
  1  2  1  0  0  0
  1 21  1  0  0  0
  1 22  1  0  0  0
  1 23  1  0  0  0
  2  3  1  0  0  0
  3  4  2  0  0  0
  3  8  1  0  0  0
  4  5  1  0  0  0
  4 24  1  0  0  0
  5  6  2  0  0  0
  5 25  1  0  0  0
  6  7  1  0  0  0
  6  9  1  0  0  0
  7  8  2  0  0  0
  7 26  1  0  0  0
  8 27  1  0  0  0
  9 10  1  0  0  0
  9 14  1  0  0  0
  9 28  1  0  0  0
 10 11  1  0  0  0
 10 29  1  0  0  0
 10 30  1  0  0  0
 11 12  1  0  0  0
 11 13  1  0  0  0
 12 31  1  0  0  0
 12 32  1  0  0  0
 12 33  1  0  0  0
 13 34  1  0  0  0
 13 35  1  0  0  0
 13 36  1  0  0  0
 14 15  1  0  0  0
 14 16  1  0  0  0
 14 20  1  0  0  0
 15 37  1  0  0  0
 16 17  1  0  0  0
 16 38  1  0  0  0
 16 39  1  0  0  0
 17 18  1  0  0  0
 17 40  1  0  0  0
 17 41  1  0  0  0
 18 19  1  0  0  0
 18 42  1  0  0  0
 18 43  1  0  0  0
 19 20  1  0  0  0
 19 44  1  0  0  0
 19 45  1  0  0  0
 20 46  1  0  0  0
 20 47  1  0  0  0
M  END
>  <likely_enzyme_classes>
monooxygenase

>  <activity>
-12

>  <molID>
mol000043

>  <name>
venlafaxine

>  <reference>
Boix et al. (2016); Gasser et al. (2012)

>  <speciation_state_pH7.4>
cationic

>  <substance_type>
antidepressant drug

>  <smiles>
COc1ccc(C(CN(C)C)C2(O)CCCCC2)cc1

>  <inchi>
InChI=1S/C17H27NO2/c1-18(2)13-16(17(19)11-5-4-6-12-17)14-7-9-15(20-3)10-8-14/h7-10,16,19H,4-6,11-13H2,1-3H3

>  <inchikey>
PNVNVHUZROJLTJ-UHFFFAOYSA-N

$$$$
