mitomycin C
 OpenBabel07241711303D
CORINA evaluation license 3.49 0066  11.04.2013
 42 45  0  0  0  0  0  0  0  0999 V2000
    0.7141   -1.9460    2.7238 C   0  0  0  0  0
   -0.2585   -2.5704    1.8834 O   0  0  0  0  0
   -0.5083   -1.8695    0.6634 C   0  0  0  0  0
   -1.5596   -2.5822   -0.2010 C   0  0  0  0  0
   -1.5612   -2.3468   -1.6504 N   0  0  0  0  0
   -0.7300   -3.4590   -1.1690 C   0  0  0  0  0
    0.7466   -3.1506   -0.8172 C   0  0  0  0  0
    0.6936   -1.8114   -0.2022 N   0  0  0  0  0
    1.2415   -0.5606   -0.1316 C   0  0  0  0  0
    0.3975    0.3331    0.4395 C   0  0  0  0  0
   -0.8663   -0.4010    0.9118 C   0  0  0  0  0
   -2.0733    0.0026    0.0625 C   0  0  0  0  0
   -2.3837    1.4016    0.2965 O   0  0  0  0  0
   -3.4274    1.9174   -0.3797 C   0  0  0  0  0
   -3.7689    3.2099   -0.2084 N   0  0  0  0  0
   -4.0616    1.2177   -1.1444 O   0  0  0  0  0
    0.7553    1.7009    0.5422 C   0  0  0  0  0
   -0.0280    2.4982    1.0200 O   0  0  0  0  0
    2.0871    2.1629    0.0671 C   0  0  0  0  0
    2.4378    3.4874    0.1731 N   0  0  0  0  0
    2.9526    1.2690   -0.4705 C   0  0  0  0  0
    4.3076    1.7273   -0.9447 C   0  0  0  0  0
    2.5879   -0.0921   -0.5878 C   0  0  0  0  0
    3.3741   -0.8881   -1.0630 O   0  0  0  0  0
    0.3743   -0.9454    2.9914 H   0  0  0  0  0
    0.8466   -2.5389    3.6288 H   0  0  0  0  0
    1.6632   -1.8773    2.1922 H   0  0  0  0  0
   -2.4671   -2.9336    0.2901 H   0  0  0  0  0
   -2.4127   -2.6875   -2.0711 H   0  0  0  0  0
   -0.9907   -4.4856   -1.4266 H   0  0  0  0  0
    1.1312   -3.8825   -0.1069 H   0  0  0  0  0
    1.3588   -3.1332   -1.7188 H   0  0  0  0  0
   -1.0557   -0.2001    1.9662 H   0  0  0  0  0
   -1.8417   -0.1468   -0.9921 H   0  0  0  0  0
   -2.9316   -0.6108    0.3364 H   0  0  0  0  0
   -3.2626    3.7685    0.4021 H   0  0  0  0  0
   -4.5208    3.5816   -0.6955 H   0  0  0  0  0
    1.7902    4.1368    0.4889 H   0  0  0  0  0
    3.3330    3.7728   -0.0680 H   0  0  0  0  0
    4.4450    2.7784   -0.6910 H   0  0  0  0  0
    5.0822    1.1324   -0.4607 H   0  0  0  0  0
    4.3757    1.6024   -2.0254 H   0  0  0  0  0
  1  2  1  0  0  0
  1 25  1  0  0  0
  1 26  1  0  0  0
  1 27  1  0  0  0
  2  3  1  0  0  0
  3  4  1  0  0  0
  3  8  1  0  0  0
  3 11  1  0  0  0
  4  5  1  0  0  0
  4  6  1  0  0  0
  4 28  1  0  0  0
  5  6  1  0  0  0
  5 29  1  0  0  0
  6  7  1  0  0  0
  6 30  1  0  0  0
  7  8  1  0  0  0
  7 31  1  0  0  0
  7 32  1  0  0  0
  8  9  1  0  0  0
  9 10  2  0  0  0
  9 23  1  0  0  0
 10 11  1  0  0  0
 10 17  1  0  0  0
 11 12  1  0  0  0
 11 33  1  0  0  0
 12 13  1  0  0  0
 12 34  1  0  0  0
 12 35  1  0  0  0
 13 14  1  0  0  0
 14 15  1  0  0  0
 14 16  2  0  0  0
 15 36  1  0  0  0
 15 37  1  0  0  0
 17 18  2  0  0  0
 17 19  1  0  0  0
 19 20  1  0  0  0
 19 21  2  0  0  0
 20 38  1  0  0  0
 20 39  1  0  0  0
 21 22  1  0  0  0
 21 23  1  0  0  0
 22 40  1  0  0  0
 22 41  1  0  0  0
 22 42  1  0  0  0
 23 24  2  0  0  0
M  END
>  <likely_enzyme_classes>
hydrolase; amine dehydrogenase; monooxygenase

>  <activity>
-10.5

>  <molID>
mol000027

>  <name>
mitomycin C

>  <reference>
Howard: Handbook of Environmental Degradation Rates

>  <speciation_state_pH7.4>
neutral

>  <substance_type>
antineoplastic drug

>  <smiles>
CO[C@]12[C@H]3N[C@H]3CN1C1=C(C(=O)C(N)=C(C)C1=O)[C@H]2COC(=N)O

>  <inchi>
InChI=1S/C15H18N4O5/c1-5-9(16)12(21)8-6(4-24-14(17)22)15(23-2)13-7(18-13)3-19(15)10(8)11(5)20/h6-7,13,18H,3-4,16H2,1-2H3,(H2,17,22)/t6-,7+,13+,15-/m1/s1

>  <inchikey>
NWIBSHFKIJFRCO-WUDYKRTCSA-N

$$$$
