trichloro acetic acid
 OpenBabel07241711303D
CORINA evaluation license 3.49 0066  11.04.2013
  8  7  0  0  0  0  0  0  0  0999 V2000
    2.2636   -0.5122    0.0000 O   0  0  0  0  0
    1.2852    0.4069   -0.0000 C   0  0  0  0  0
    1.5613    1.5831   -0.0000 O   0  0  0  0  0
   -0.1575   -0.0285    0.0000 C   0  0  0  0  0
   -1.2239    1.4253   -0.0000 Cl  0  0  0  0  0
   -0.4874   -1.0158   -1.4721 Cl  0  0  0  0  0
   -0.4873   -1.0158    1.4722 Cl  0  0  0  0  0
    3.1735   -0.1847   -0.0000 H   0  0  0  0  0
  1  2  1  0  0  0
  1  8  1  0  0  0
  2  3  2  0  0  0
  2  4  1  0  0  0
  4  5  1  0  0  0
  4  6  1  0  0  0
  4  7  1  0  0  0
M  END
>  <likely_enzyme_classes>
dehalogenase

>  <activity>
-11

>  <molID>
mol000118

>  <name>
trichloro acetic acid

>  <reference>
Ellis et al. (2001)

>  <speciation_state_pH7.4>
anionic

>  <substance_type>
chemical substance

>  <smiles>
O=C(O)C(Cl)(Cl)Cl

>  <inchi>
InChI=1S/C2HCl3O2/c3-2(4,5)1(6)7/h(H,6,7)

>  <inchikey>
YNJBWRMUSHSURL-UHFFFAOYSA-N

$$$$
