metobromuron
 OpenBabel07241711303D
CORINA evaluation license 3.49 0066  11.04.2013
 25 25  0  0  0  0  0  0  0  0999 V2000
   -4.9900    1.5097    0.2853 C   0  0  0  0  0
   -4.1181    0.3340    0.2236 N   0  0  0  0  0
   -2.7795    0.4848    0.2654 C   0  0  0  0  0
   -2.2954    1.5966    0.3544 O   0  0  0  0  0
   -1.9774   -0.5968    0.2087 N   0  0  0  0  0
   -0.5886   -0.4354    0.1397 C   0  0  0  0  0
    0.2503   -1.3636    0.7422 C   0  0  0  0  0
    1.6202   -1.2022    0.6722 C   0  0  0  0  0
    2.1568   -0.1169    0.0025 C   0  0  0  0  0
    1.3233    0.8096   -0.5984 C   0  0  0  0  0
   -0.0472    0.6500   -0.5363 C   0  0  0  0  0
    4.0329    0.1007   -0.0913 Br  0  0  0  0  0
   -4.6818   -0.9608    0.1200 O   0  0  0  0  0
   -4.8828   -1.4014   -1.2244 C   0  0  0  0  0
   -5.1823    1.8729   -0.7243 H   0  0  0  0  0
   -5.9331    1.2382    0.7596 H   0  0  0  0  0
   -4.5033    2.2929    0.8666 H   0  0  0  0  0
   -2.3624   -1.4871    0.2156 H   0  0  0  0  0
   -0.1681   -2.2107    1.2654 H   0  0  0  0  0
    2.2730   -1.9236    1.1409 H   0  0  0  0  0
    1.7448    1.6560   -1.1202 H   0  0  0  0  0
   -0.6974    1.3733   -1.0058 H   0  0  0  0  0
   -5.5583   -0.7148   -1.7346 H   0  0  0  0  0
   -3.9260   -1.4245   -1.7460 H   0  0  0  0  0
   -5.3174   -2.4010   -1.2180 H   0  0  0  0  0
  1  2  1  0  0  0
  1 15  1  0  0  0
  1 16  1  0  0  0
  1 17  1  0  0  0
  2  3  1  0  0  0
  2 13  1  0  0  0
  3  4  2  0  0  0
  3  5  1  0  0  0
  5  6  1  0  0  0
  5 18  1  0  0  0
  6  7  2  0  0  0
  6 11  1  0  0  0
  7  8  1  0  0  0
  7 19  1  0  0  0
  8  9  2  0  0  0
  8 20  1  0  0  0
  9 10  1  0  0  0
  9 12  1  0  0  0
 10 11  2  0  0  0
 10 21  1  0  0  0
 11 22  1  0  0  0
 13 14  1  0  0  0
 14 23  1  0  0  0
 14 24  1  0  0  0
 14 25  1  0  0  0
M  END
>  <likely_enzyme_classes>
aminedehydrogenase; amidohydrolase

>  <activity>
-11.8

>  <molID>
mol000201

>  <name>
metobromuron

>  <reference>
Parra et al. (2000)

>  <speciation_state_pH7.4>
neutral

>  <substance_type>
herbicide

>  <smiles>
CON(C)C(=O)Nc1ccc(Br)cc1

>  <inchi>
InChI=1S/C9H11BrN2O2/c1-12(14-2)9(13)11-8-5-3-7(10)4-6-8/h3-6H,1-2H3,(H,11,13)

>  <inchikey>
WLFDQEVORAMCIM-UHFFFAOYSA-N

$$$$
