cellobiose
 OpenBabel07241711303D
CORINA evaluation license 3.49 0066  11.04.2013
 45 46  0  0  0  0  0  0  0  0999 V2000
   -1.8249    3.3034   -0.9309 O   0  0  0  0  0
   -2.8053    2.5534   -0.2109 C   0  0  0  0  0
   -2.5935    1.0598   -0.4661 C   0  0  0  0  0
   -1.3350    0.6571    0.0780 O   0  0  0  0  0
   -1.0244   -0.7224   -0.1288 C   0  0  0  0  0
    0.2597   -1.0105    0.4280 O   0  0  0  0  0
    1.3389   -0.3325   -0.2183 C   0  0  0  0  0
    1.5774    1.0177    0.4644 C   0  0  0  0  0
    0.4211    1.8428    0.3091 O   0  0  0  0  0
    2.7849    1.7000   -0.1859 C   0  0  0  0  0
    3.0614    2.9278    0.4910 O   0  0  0  0  0
    4.0002    0.7747   -0.0839 C   0  0  0  0  0
    4.3163    0.5530    1.2919 O   0  0  0  0  0
    3.7005   -0.4739   -0.7112 O   0  0  0  0  0
    2.6101   -1.1794   -0.1151 C   0  0  0  0  0
    2.3999   -2.5064   -0.8471 C   0  0  0  0  0
    3.5421   -3.3431   -0.6538 O   0  0  0  0  0
   -2.0839   -1.5906    0.5549 C   0  0  0  0  0
   -1.8079   -2.9695    0.3008 O   0  0  0  0  0
   -3.4643   -1.2333   -0.0046 C   0  0  0  0  0
   -4.4672   -1.9867    0.6800 O   0  0  0  0  0
   -3.7160    0.2632    0.2041 C   0  0  0  0  0
   -4.9703    0.6223   -0.3789 O   0  0  0  0  0
   -1.8990    4.2606   -0.8154 H   0  0  0  0  0
   -2.7077    2.7573    0.8554 H   0  0  0  0  0
   -3.8016    2.8416   -0.5462 H   0  0  0  0  0
   -2.6032    0.8694   -1.5393 H   0  0  0  0  0
   -1.0134   -0.9362   -1.1976 H   0  0  0  0  0
    1.0916   -0.1715   -1.2676 H   0  0  0  0  0
    1.7733    0.8604    1.5251 H   0  0  0  0  0
    0.5026    2.7152    0.7183 H   0  0  0  0  0
    2.5674    1.9031   -1.2345 H   0  0  0  0  0
    3.8157    3.4141    0.1310 H   0  0  0  0  0
    4.8520    1.2370   -0.5827 H   0  0  0  0  0
    5.0781   -0.0259    1.4322 H   0  0  0  0  0
    2.8331   -1.3742    0.9339 H   0  0  0  0  0
    1.5143   -3.0035   -0.4511 H   0  0  0  0  0
    2.2646   -2.3166   -1.9118 H   0  0  0  0  0
    3.4782   -4.2032   -1.0911 H   0  0  0  0  0
   -2.0668   -1.4076    1.6293 H   0  0  0  0  0
   -0.9457   -3.2642    0.6247 H   0  0  0  0  0
   -3.4974   -1.4650   -1.0692 H   0  0  0  0  0
   -4.3653   -2.9447    0.5961 H   0  0  0  0  0
   -3.7337    0.4842    1.2713 H   0  0  0  0  0
   -5.7273    0.1513   -0.0046 H   0  0  0  0  0
  1  2  1  0  0  0
  1 24  1  0  0  0
  2  3  1  0  0  0
  2 25  1  0  0  0
  2 26  1  0  0  0
  3  4  1  0  0  0
  3 22  1  0  0  0
  3 27  1  0  0  0
  4  5  1  0  0  0
  5  6  1  0  0  0
  5 18  1  0  0  0
  5 28  1  0  0  0
  6  7  1  0  0  0
  7  8  1  0  0  0
  7 15  1  0  0  0
  7 29  1  0  0  0
  8  9  1  0  0  0
  8 10  1  0  0  0
  8 30  1  0  0  0
  9 31  1  0  0  0
 10 11  1  0  0  0
 10 12  1  0  0  0
 10 32  1  0  0  0
 11 33  1  0  0  0
 12 13  1  0  0  0
 12 14  1  0  0  0
 12 34  1  0  0  0
 13 35  1  0  0  0
 14 15  1  0  0  0
 15 16  1  0  0  0
 15 36  1  0  0  0
 16 17  1  0  0  0
 16 37  1  0  0  0
 16 38  1  0  0  0
 17 39  1  0  0  0
 18 19  1  0  0  0
 18 20  1  0  0  0
 18 40  1  0  0  0
 19 41  1  0  0  0
 20 21  1  0  0  0
 20 22  1  0  0  0
 20 42  1  0  0  0
 21 43  1  0  0  0
 22 23  1  0  0  0
 22 44  1  0  0  0
 23 45  1  0  0  0
M  END
>  <likely_enzyme_classes>
isomerase

>  <activity>
-9.1

>  <molID>
mol000172

>  <name>
cellobiose

>  <reference>
Vervier et al. (2002)

>  <speciation_state_pH7.4>
neutral

>  <substance_type>
chemical substance

>  <smiles>
OC[C@H]1O[C@@H](O[C@@H]2[C@@H](CO)OC(O)[C@H](O)[C@H]2O)[C@H](O)[C@@H](O)[C@@H]1O

>  <inchi>
InChI=1S/C12H22O11/c13-1-3-5(15)6(16)9(19)12(22-3)23-10-4(2-14)21-11(20)8(18)7(10)17/h3-20H,1-2H2/t3-,4-,5-,6+,7-,8-,9-,10-,11?,12+/m1/s1

>  <inchikey>
GUBGYTABKSRVRQ-CUHNMECISA-N

$$$$
