Timolol
 OpenBabel07241711303D
CORINA evaluation license 3.49 0066  11.04.2013
 45 46  0  0  0  0  0  0  0  0999 V2000
   -5.8290    0.2904   -1.5616 C   0  0  0  0  0
   -5.7181   -0.3363   -0.1702 C   0  0  0  0  0
   -6.0353    0.7191    0.8912 C   0  0  0  0  0
   -6.7117   -1.4936   -0.0515 C   0  0  0  0  0
   -4.3532   -0.8399    0.0327 N   0  0  0  0  0
   -3.3699    0.2462   -0.0745 C   0  0  0  0  0
   -1.9635   -0.3159    0.1421 C   0  0  0  0  0
   -0.9394    0.8153    0.0305 C   0  0  0  0  0
    0.3801    0.2735    0.1166 O   0  0  0  0  0
    1.4151    1.1523    0.0343 C   0  0  0  0  0
    1.2265    2.4369   -0.1164 N   0  0  0  0  0
    2.7672    3.1447   -0.1695 S   0  0  0  0  0
    3.6292    1.6951    0.0123 N   0  0  0  0  0
    2.7357    0.7442    0.1104 C   0  0  0  0  0
    3.0925   -0.6005    0.2727 N   0  0  0  0  0
    4.5538   -0.7568    0.3114 C   0  0  0  0  0
    4.8980   -2.2296    0.5492 C   0  0  0  0  0
    4.2952   -3.0260   -0.4744 O   0  0  0  0  0
    2.8722   -2.8985   -0.5401 C   0  0  0  0  0
    2.5076   -1.4325   -0.7889 C   0  0  0  0  0
   -1.8813   -0.9065    1.4408 O   0  0  0  0  0
   -5.1211    1.1149   -1.6462 H   0  0  0  0  0
   -5.6030   -0.4615   -2.3177 H   0  0  0  0  0
   -6.8418    0.6641   -1.7121 H   0  0  0  0  0
   -7.0481    1.0928    0.7406 H   0  0  0  0  0
   -5.9563    0.2727    1.8824 H   0  0  0  0  0
   -5.3275    1.5437    0.8066 H   0  0  0  0  0
   -6.4858   -2.2455   -0.8076 H   0  0  0  0  0
   -6.6328   -1.9401    0.9398 H   0  0  0  0  0
   -7.7245   -1.1199   -0.2020 H   0  0  0  0  0
   -4.2713   -1.3157    0.9187 H   0  0  0  0  0
   -3.4326    0.6966   -1.0651 H   0  0  0  0  0
   -3.5796    1.0021    0.6823 H   0  0  0  0  0
   -1.7538   -1.0718   -0.6147 H   0  0  0  0  0
   -1.0619    1.3233   -0.9261 H   0  0  0  0  0
   -1.0938    1.5265    0.8419 H   0  0  0  0  0
    4.9799   -0.4321   -0.6379 H   0  0  0  0  0
    4.9632   -0.1521    1.1206 H   0  0  0  0  0
    5.9798   -2.3595    0.5217 H   0  0  0  0  0
    4.5180   -2.5395    1.5227 H   0  0  0  0  0
    2.4890   -3.5123   -1.3553 H   0  0  0  0  0
    2.4334   -3.2279    0.4018 H   0  0  0  0  0
    1.4233   -1.3211   -0.7828 H   0  0  0  0  0
    2.9010   -1.1187   -1.7557 H   0  0  0  0  0
   -2.0569   -0.2901    2.1649 H   0  0  0  0  0
  1  2  1  0  0  0
  1 22  1  0  0  0
  1 23  1  0  0  0
  1 24  1  0  0  0
  2  3  1  0  0  0
  2  4  1  0  0  0
  2  5  1  0  0  0
  3 25  1  0  0  0
  3 26  1  0  0  0
  3 27  1  0  0  0
  4 28  1  0  0  0
  4 29  1  0  0  0
  4 30  1  0  0  0
  5  6  1  0  0  0
  5 31  1  0  0  0
  6  7  1  0  0  0
  6 32  1  0  0  0
  6 33  1  0  0  0
  7  8  1  0  0  0
  7 21  1  0  0  0
  7 34  1  0  0  0
  8  9  1  0  0  0
  8 35  1  0  0  0
  8 36  1  0  0  0
  9 10  1  0  0  0
 10 11  2  0  0  0
 10 14  1  0  0  0
 11 12  1  0  0  0
 12 13  1  0  0  0
 13 14  2  0  0  0
 14 15  1  0  0  0
 15 16  1  0  0  0
 15 20  1  0  0  0
 16 17  1  0  0  0
 16 37  1  0  0  0
 16 38  1  0  0  0
 17 18  1  0  0  0
 17 39  1  0  0  0
 17 40  1  0  0  0
 18 19  1  0  0  0
 19 20  1  0  0  0
 19 41  1  0  0  0
 19 42  1  0  0  0
 20 43  1  0  0  0
 20 44  1  0  0  0
 21 45  1  0  0  0
M  END
>  <likely_enzyme_classes>
monooxygenase; amine dehydrogenase

>  <activity>
-11.2

>  <molID>
mol000180

>  <name>
Timolol

>  <reference>
Baena-Nogueras et al. (2017)

>  <speciation_state_pH7.4>
cationic

>  <substance_type>
beta blocker drug

>  <smiles>
CC(C)(C)NCC(O)COc1nsnc1N1CCOCC1

>  <inchi>
InChI=1S/C13H24N4O3S/c1-13(2,3)14-8-10(18)9-20-12-11(15-21-16-12)17-4-6-19-7-5-17/h10,14,18H,4-9H2,1-3H3

>  <inchikey>
BLJRIMJGRPQVNF-UHFFFAOYSA-N

$$$$
