dicamba
 OpenBabel07241711303D
CORINA evaluation license 3.49 0066  11.04.2013
 19 19  0  0  0  0  0  0  0  0999 V2000
   -1.5935    2.3393    0.8491 C   0  0  0  0  0
   -1.3080    1.5915   -0.3347 O   0  0  0  0  0
   -0.7842    0.3512   -0.1684 C   0  0  0  0  0
   -1.6213   -0.7495   -0.0568 C   0  0  0  0  0
   -3.3430   -0.5400   -0.1307 Cl  0  0  0  0  0
   -1.0866   -2.0128    0.1127 C   0  0  0  0  0
    0.2851   -2.1910    0.1726 C   0  0  0  0  0
    1.1333   -1.1083    0.0635 C   0  0  0  0  0
    2.8522   -1.3391    0.1394 Cl  0  0  0  0  0
    0.6059    0.1751   -0.1142 C   0  0  0  0  0
    1.5051    1.3362   -0.2315 C   0  0  0  0  0
    1.8799    2.0124    0.8722 O   0  0  0  0  0
    1.9089    1.6841   -1.3236 O   0  0  0  0  0
   -2.0068    3.3100    0.5749 H   0  0  0  0  0
   -2.3163    1.7953    1.4570 H   0  0  0  0  0
   -0.6751    2.4832    1.4183 H   0  0  0  0  0
   -1.7429   -2.8661    0.1994 H   0  0  0  0  0
    0.6931   -3.1821    0.3056 H   0  0  0  0  0
    2.4709    2.7672    0.7452 H   0  0  0  0  0
  1  2  1  0  0  0
  1 14  1  0  0  0
  1 15  1  0  0  0
  1 16  1  0  0  0
  2  3  1  0  0  0
  3  4  2  0  0  0
  3 10  1  0  0  0
  4  5  1  0  0  0
  4  6  1  0  0  0
  6  7  2  0  0  0
  6 17  1  0  0  0
  7  8  1  0  0  0
  7 18  1  0  0  0
  8  9  1  0  0  0
  8 10  2  0  0  0
 10 11  1  0  0  0
 11 12  1  0  0  0
 11 13  2  0  0  0
 12 19  1  0  0  0
M  END
>  <likely_enzyme_classes>
monooxygenase; dioxygenase

>  <activity>
-11.6

>  <molID>
mol000038

>  <name>
dicamba

>  <reference>
Scifres et al. (1973)

>  <speciation_state_pH7.4>
anionic

>  <substance_type>
herbicide

>  <smiles>
COc1c(Cl)ccc(Cl)c1C(=O)O

>  <inchi>
InChI=1S/C8H6Cl2O3/c1-13-7-5(10)3-2-4(9)6(7)8(11)12/h2-3H,1H3,(H,11,12)

>  <inchikey>
IWEDIXLBFLAXBO-UHFFFAOYSA-N

$$$$
