propionaldehyde
 OpenBabel07241711303D
CORINA evaluation license 3.49 0066  11.04.2013
 10  9  0  0  0  0  0  0  0  0999 V2000
    1.7550    0.3141   -0.1732 C   0  0  0  0  0
    0.5668   -0.6063    0.1133 C   0  0  0  0  0
   -0.6623    0.2261    0.3727 C   0  0  0  0  0
   -1.6640    0.0424   -0.2763 O   0  0  0  0  0
    1.9291    0.9610    0.6867 H   0  0  0  0  0
    2.6440   -0.2879   -0.3609 H   0  0  0  0  0
    1.5383    0.9251   -1.0495 H   0  0  0  0  0
    0.3927   -1.2531   -0.7466 H   0  0  0  0  0
    0.7836   -1.2173    0.9895 H   0  0  0  0  0
   -0.6474    0.9868    1.1392 H   0  0  0  0  0
  1  2  1  0  0  0
  1  5  1  0  0  0
  1  6  1  0  0  0
  1  7  1  0  0  0
  2  3  1  0  0  0
  2  8  1  0  0  0
  2  9  1  0  0  0
  3  4  2  0  0  0
  3 10  1  0  0  0
M  END
>  <likely_enzyme_classes>
aldehyde dehydrogenase

>  <activity>
-9.8

>  <molID>
mol000125

>  <name>
propionaldehyde

>  <reference>
Mackay handbook of physical-chemical properties

>  <speciation_state_pH7.4>
neutral

>  <substance_type>
chemical substance

>  <smiles>
CCC=O

>  <inchi>
InChI=1S/C3H6O/c1-2-3-4/h3H,2H2,1H3

>  <inchikey>
NBBJYMSMWIIQGU-UHFFFAOYSA-N

$$$$
