ethinylestradiol
 OpenBabel07241711303D
CORINA evaluation license 3.49 0066  11.04.2013
 46 49  0  0  0  0  0  0  0  0999 V2000
   -1.7653    0.1379   -1.8905 C   0  0  0  0  0
   -2.1402    0.3225   -0.4187 C   0  0  0  0  0
   -1.5716    1.6304    0.0903 C   0  0  0  0  0
   -0.0529    1.6113   -0.1684 C   0  0  0  0  0
    0.5906    0.4051    0.5000 C   0  0  0  0  0
   -0.0614   -0.9061    0.0425 C   0  0  0  0  0
    0.6509   -2.0566    0.7542 C   0  0  0  0  0
    2.0598   -2.1775    0.1752 C   0  0  0  0  0
    2.7478   -0.8388    0.1255 C   0  0  0  0  0
    2.0717    0.3561    0.2602 C   0  0  0  0  0
    2.7664    1.5561    0.1887 C   0  0  0  0  0
    4.1312    1.5672   -0.0056 C   0  0  0  0  0
    4.8164    0.3672   -0.1316 C   0  0  0  0  0
    6.1626    0.3663   -0.3179 O   0  0  0  0  0
    4.1230   -0.8286   -0.0663 C   0  0  0  0  0
   -1.5255   -0.8299    0.4238 C   0  0  0  0  0
   -2.3942   -2.0184   -0.0025 C   0  0  0  0  0
   -3.8224   -1.4093   -0.0428 C   0  0  0  0  0
   -3.6390    0.1081   -0.2420 C   0  0  0  0  0
   -4.3229    0.5392   -1.4203 O   0  0  0  0  0
   -4.1376    0.8409    0.9333 C   0  0  0  0  0
   -4.5353    1.4253    1.8706 C   0  0  0  0  0
   -0.6838    0.2147   -2.0023 H   0  0  0  0  0
   -2.0969   -0.8435   -2.2296 H   0  0  0  0  0
   -2.2481    0.9111   -2.4881 H   0  0  0  0  0
   -2.0272    2.4643   -0.4438 H   0  0  0  0  0
   -1.7634    1.7259    1.1591 H   0  0  0  0  0
    0.1279    1.5657   -1.2423 H   0  0  0  0  0
    0.3910    2.5229    0.2316 H   0  0  0  0  0
    0.4398    0.4970    1.5756 H   0  0  0  0  0
    0.0487   -1.0158   -1.0363 H   0  0  0  0  0
    0.7090   -1.8484    1.8225 H   0  0  0  0  0
    0.1047   -2.9854    0.5892 H   0  0  0  0  0
    2.6440   -2.8562    0.7966 H   0  0  0  0  0
    1.9972   -2.5842   -0.8342 H   0  0  0  0  0
    2.2324    2.4898    0.2858 H   0  0  0  0  0
    4.6642    2.5050   -0.0599 H   0  0  0  0  0
    6.6732    0.3433    0.5030 H   0  0  0  0  0
    4.6564   -1.7625   -0.1650 H   0  0  0  0  0
   -1.6317   -0.6434    1.4925 H   0  0  0  0  0
   -2.0999   -2.3769   -0.9889 H   0  0  0  0  0
   -2.3378   -2.8208    0.7331 H   0  0  0  0  0
   -4.3888   -1.8380   -0.8694 H   0  0  0  0  0
   -4.3358   -1.5968    0.9003 H   0  0  0  0  0
   -5.2786    0.3942   -1.3956 H   0  0  0  0  0
   -4.8909    1.9480    2.7089 H   0  0  0  0  0
  1  2  1  0  0  0
  1 23  1  0  0  0
  1 24  1  0  0  0
  1 25  1  0  0  0
  2  3  1  0  0  0
  2 16  1  0  0  0
  2 19  1  0  0  0
  3  4  1  0  0  0
  3 26  1  0  0  0
  3 27  1  0  0  0
  4  5  1  0  0  0
  4 28  1  0  0  0
  4 29  1  0  0  0
  5  6  1  0  0  0
  5 10  1  0  0  0
  5 30  1  0  0  0
  6  7  1  0  0  0
  6 16  1  0  0  0
  6 31  1  0  0  0
  7  8  1  0  0  0
  7 32  1  0  0  0
  7 33  1  0  0  0
  8  9  1  0  0  0
  8 34  1  0  0  0
  8 35  1  0  0  0
  9 10  2  0  0  0
  9 15  1  0  0  0
 10 11  1  0  0  0
 11 12  2  0  0  0
 11 36  1  0  0  0
 12 13  1  0  0  0
 12 37  1  0  0  0
 13 14  1  0  0  0
 13 15  2  0  0  0
 14 38  1  0  0  0
 15 39  1  0  0  0
 16 17  1  0  0  0
 16 40  1  0  0  0
 17 18  1  0  0  0
 17 41  1  0  0  0
 17 42  1  0  0  0
 18 19  1  0  0  0
 18 43  1  0  0  0
 18 44  1  0  0  0
 19 20  1  0  0  0
 19 21  1  0  0  0
 20 45  1  0  0  0
 21 22  3  0  0  0
 22 46  1  0  0  0
M  END
>  <likely_enzyme_classes>
monooxygenase

>  <activity>
-10.1

>  <molID>
mol000013

>  <name>
ethinylestradiol

>  <reference>
Jurgens et al. (2002); Cormier et al. (2015)

>  <speciation_state_pH7.4>
neutral

>  <substance_type>
steroidal drug

>  <smiles>
C#C[C@]1(O)CC[C@H]2[C@@H]3CCc4cc(O)ccc4[C@H]3CC[C@@]21C

>  <inchi>
InChI=1S/C20H24O2/c1-3-20(22)11-9-18-17-6-4-13-12-14(21)5-7-15(13)16(17)8-10-19(18,20)2/h1,5,7,12,16-18,21-22H,4,6,8-11H2,2H3/t16-,17-,18+,19+,20+/m1/s1

>  <inchikey>
BFPYWIDHMRZLRN-SLHNCBLASA-N

$$$$
