acetic acid
 OpenBabel07241711303D
CORINA evaluation license 3.49 0066  11.04.2013
  8  7  0  0  0  0  0  0  0  0999 V2000
    1.4209    0.4122   -0.0000 C   0  0  0  0  0
   -0.0115   -0.0559    0.0000 C   0  0  0  0  0
   -1.0106    0.8405    0.0000 O   0  0  0  0  0
   -0.2607   -1.2382    0.0000 O   0  0  0  0  0
    1.4471    1.5019   -0.0000 H   0  0  0  0  0
    1.9259    0.0366    0.8900 H   0  0  0  0  0
    1.9259    0.0366   -0.8900 H   0  0  0  0  0
   -1.9127    0.4925    0.0000 H   0  0  0  0  0
  1  2  1  0  0  0
  1  5  1  0  0  0
  1  6  1  0  0  0
  1  7  1  0  0  0
  2  3  1  0  0  0
  2  4  2  0  0  0
  3  8  1  0  0  0
M  END
>  <likely_enzyme_classes>
monooxygenase?

>  <activity>
-10.2

>  <molID>
mol000037

>  <name>
acetic acid

>  <reference>
Mackay handbook of physical-chemical properties

>  <speciation_state_pH7.4>
anionic

>  <substance_type>
chemical substance

>  <smiles>
CC(=O)O

>  <inchi>
InChI=1S/C2H4O2/c1-2(3)4/h1H3,(H,3,4)

>  <inchikey>
QTBSBXVTEAMEQO-UHFFFAOYSA-N

$$$$
