atrazine
 OpenBabel07241711303D
CORINA evaluation license 3.49 0066  11.04.2013
 28 28  0  0  0  0  0  0  0  0999 V2000
    5.0303   -1.6214    0.1062 C   0  0  0  0  0
    3.8686   -0.6269    0.0574 C   0  0  0  0  0
    2.5998   -1.3588    0.0358 N   0  0  0  0  0
    1.4057   -0.6684   -0.0085 C   0  0  0  0  0
    0.2546   -1.3315   -0.0282 N   0  0  0  0  0
   -0.8932   -0.6632   -0.0709 C   0  0  0  0  0
   -2.0910   -1.3481   -0.0910 N   0  0  0  0  0
   -3.3559   -0.6106   -0.1381 C   0  0  0  0  0
   -4.4384   -1.4940   -0.7615 C   0  0  0  0  0
   -3.7715   -0.2197    1.2815 C   0  0  0  0  0
   -0.8863    0.6673   -0.0940 N   0  0  0  0  0
    0.2618    1.3247   -0.0743 C   0  0  0  0  0
    0.2664    3.0605   -0.1039 Cl  0  0  0  0  0
    1.4058    0.6624   -0.0262 N   0  0  0  0  0
    5.9744   -1.0768    0.1223 H   0  0  0  0  0
    4.9480   -2.2324    1.0050 H   0  0  0  0  0
    4.9961   -2.2634   -0.7740 H   0  0  0  0  0
    3.9028    0.0152    0.9376 H   0  0  0  0  0
    3.9510   -0.0158   -0.8414 H   0  0  0  0  0
    2.5989   -2.3286    0.0527 H   0  0  0  0  0
   -2.0954   -2.3180   -0.0738 H   0  0  0  0  0
   -3.2297    0.2891   -0.7405 H   0  0  0  0  0
   -4.5647   -2.3936   -0.1591 H   0  0  0  0  0
   -5.3796   -0.9452   -0.7965 H   0  0  0  0  0
   -4.1423   -1.7725   -1.7728 H   0  0  0  0  0
   -3.0003    0.4097    1.7256 H   0  0  0  0  0
   -4.7126    0.3291    1.2464 H   0  0  0  0  0
   -3.8977   -1.1193    1.8839 H   0  0  0  0  0
  1  2  1  0  0  0
  1 15  1  0  0  0
  1 16  1  0  0  0
  1 17  1  0  0  0
  2  3  1  0  0  0
  2 18  1  0  0  0
  2 19  1  0  0  0
  3  4  1  0  0  0
  3 20  1  0  0  0
  4  5  2  0  0  0
  4 14  1  0  0  0
  5  6  1  0  0  0
  6  7  1  0  0  0
  6 11  2  0  0  0
  7  8  1  0  0  0
  7 21  1  0  0  0
  8  9  1  0  0  0
  8 10  1  0  0  0
  8 22  1  0  0  0
  9 23  1  0  0  0
  9 24  1  0  0  0
  9 25  1  0  0  0
 10 26  1  0  0  0
 10 27  1  0  0  0
 10 28  1  0  0  0
 11 12  1  0  0  0
 12 13  1  0  0  0
 12 14  2  0  0  0
M  END
>  <likely_enzyme_classes>
dehalogenase; monooxygenase

>  <activity>
-12.1

>  <molID>
mol000103

>  <name>
atrazine

>  <reference>
Dries et al. (1987); Cormier et al. (2015); Starner et al. (1999); Widmer and others (1993)

>  <speciation_state_pH7.4>
neutral

>  <substance_type>
herbicide

>  <smiles>
CCN=c1nc(Cl)[nH]c(=NC(C)C)[nH]1

>  <inchi>
InChI=1S/C8H14ClN5/c1-4-10-7-12-6(9)13-8(14-7)11-5(2)3/h5H,4H2,1-3H3,(H2,10,11,12,13,14)

>  <inchikey>
MXWJVTOOROXGIU-UHFFFAOYSA-N

$$$$
