Fluoxetine
 OpenBabel07241711303D
CORINA evaluation license 3.49 0066  11.04.2013
 40 41  0  0  0  0  0  0  0  0999 V2000
    4.4205    4.3902   -0.3787 C   0  0  0  0  0
    4.5242    2.9422   -0.1539 N   0  0  0  0  0
    3.2152    2.2917   -0.2999 C   0  0  0  0  0
    3.3632    0.7881   -0.0591 C   0  0  0  0  0
    1.9998    0.1106   -0.2111 C   0  0  0  0  0
    2.1654   -1.3828   -0.0957 C   0  0  0  0  0
    2.3060   -2.1527   -1.2352 C   0  0  0  0  0
    2.4578   -3.5227   -1.1293 C   0  0  0  0  0
    2.4694   -4.1226    0.1160 C   0  0  0  0  0
    2.3296   -3.3526    1.2555 C   0  0  0  0  0
    2.1822   -1.9822    1.1498 C   0  0  0  0  0
    1.1209    0.5732    0.8162 O   0  0  0  0  0
   -0.2129    0.5004    0.5660 C   0  0  0  0  0
   -1.1197    1.0332    1.4708 C   0  0  0  0  0
   -2.4750    0.9578    1.2142 C   0  0  0  0  0
   -2.9280    0.3520    0.0568 C   0  0  0  0  0
   -2.0264   -0.1801   -0.8462 C   0  0  0  0  0
   -0.6698   -0.1019   -0.5972 C   0  0  0  0  0
   -4.4071    0.2712   -0.2205 C   0  0  0  0  0
   -4.8103    1.4049   -0.9342 F   0  0  0  0  0
   -4.6781   -0.8754   -0.9748 F   0  0  0  0  0
   -5.1059    0.2092    0.9899 F   0  0  0  0  0
    4.0484    4.5758   -1.3863 H   0  0  0  0  0
    3.7326    4.8223    0.3480 H   0  0  0  0  0
    5.4036    4.8469   -0.2646 H   0  0  0  0  0
    5.2048    2.5280   -0.7730 H   0  0  0  0  0
    2.5189    2.7093    0.4274 H   0  0  0  0  0
    2.8348    2.4627   -1.3069 H   0  0  0  0  0
    4.0595    0.3705   -0.7863 H   0  0  0  0  0
    3.7436    0.6171    0.9479 H   0  0  0  0  0
    1.5793    0.3552   -1.1865 H   0  0  0  0  0
    2.2970   -1.6840   -2.2081 H   0  0  0  0  0
    2.5670   -4.1242   -2.0196 H   0  0  0  0  0
    2.5872   -5.1930    0.1986 H   0  0  0  0  0
    2.3383   -3.8214    2.2284 H   0  0  0  0  0
    2.0730   -1.3806    2.0401 H   0  0  0  0  0
   -0.7663    1.5062    2.3751 H   0  0  0  0  0
   -3.1813    1.3722    1.9184 H   0  0  0  0  0
   -2.3828   -0.6535   -1.7492 H   0  0  0  0  0
    0.0341   -0.5177   -1.3029 H   0  0  0  0  0
  1  2  1  0  0  0
  1 23  1  0  0  0
  1 24  1  0  0  0
  1 25  1  0  0  0
  2  3  1  0  0  0
  2 26  1  0  0  0
  3  4  1  0  0  0
  3 27  1  0  0  0
  3 28  1  0  0  0
  4  5  1  0  0  0
  4 29  1  0  0  0
  4 30  1  0  0  0
  5  6  1  0  0  0
  5 12  1  0  0  0
  5 31  1  0  0  0
  6  7  2  0  0  0
  6 11  1  0  0  0
  7  8  1  0  0  0
  7 32  1  0  0  0
  8  9  2  0  0  0
  8 33  1  0  0  0
  9 10  1  0  0  0
  9 34  1  0  0  0
 10 11  2  0  0  0
 10 35  1  0  0  0
 11 36  1  0  0  0
 12 13  1  0  0  0
 13 14  2  0  0  0
 13 18  1  0  0  0
 14 15  1  0  0  0
 14 37  1  0  0  0
 15 16  2  0  0  0
 15 38  1  0  0  0
 16 17  1  0  0  0
 16 19  1  0  0  0
 17 18  2  0  0  0
 17 39  1  0  0  0
 18 40  1  0  0  0
 19 20  1  0  0  0
 19 21  1  0  0  0
 19 22  1  0  0  0
M  END
>  <likely_enzyme_classes>
monooxygenase

>  <activity>
-11.2

>  <molID>
mol000182

>  <name>
Fluoxetine

>  <reference>
Baena-Nogueras et al. (2017)

>  <speciation_state_pH7.4>
cationic

>  <substance_type>
anticonvulsant drug

>  <smiles>
CNCCC(Oc1ccc(C(F)(F)F)cc1)c1ccccc1

>  <inchi>
InChI=1S/C17H18F3NO/c1-21-12-11-16(13-5-3-2-4-6-13)22-15-9-7-14(8-10-15)17(18,19)20/h2-10,16,21H,11-12H2,1H3

>  <inchikey>
RTHCYVBBDHJXIQ-UHFFFAOYSA-N

$$$$
