acetone
 OpenBabel07241711303D
CORINA evaluation license 3.49 0066  11.04.2013
 10  9  0  0  0  0  0  0  0  0999 V2000
    1.3051    0.6772   -0.0000 C   0  0  0  0  0
   -0.0000   -0.0763    0.0000 C   0  0  0  0  0
   -1.3051    0.6772    0.0000 C   0  0  0  0  0
   -0.0000   -1.2839    0.0000 O   0  0  0  0  0
    1.1059    1.7488   -0.0000 H   0  0  0  0  0
    1.8767    0.4138    0.8900 H   0  0  0  0  0
    1.8767    0.4138   -0.8900 H   0  0  0  0  0
   -1.1059    1.7488    0.0000 H   0  0  0  0  0
   -1.8767    0.4138   -0.8900 H   0  0  0  0  0
   -1.8767    0.4138    0.8900 H   0  0  0  0  0
  1  2  1  0  0  0
  1  5  1  0  0  0
  1  6  1  0  0  0
  1  7  1  0  0  0
  2  3  1  0  0  0
  2  4  2  0  0  0
  3  8  1  0  0  0
  3  9  1  0  0  0
  3 10  1  0  0  0
M  END
>  <likely_enzyme_classes>
carboxylase; monooxygenase

>  <activity>
-9.8

>  <molID>
mol000026

>  <name>
acetone

>  <reference>
Mackay handbook of physical-chemical properties

>  <speciation_state_pH7.4>
neutral

>  <substance_type>
chemical substance

>  <smiles>
CC(C)=O

>  <inchi>
InChI=1S/C3H6O/c1-3(2)4/h1-2H3

>  <inchikey>
CSCPPACGZOOCGX-UHFFFAOYSA-N

$$$$
