lamivudine
 OpenBabel07241711303D
CORINA evaluation license 3.49 0066  11.04.2013
 26 27  0  0  0  0  0  0  0  0999 V2000
    4.7462   -1.0380    0.4493 N   0  0  0  0  0
    3.4525   -0.6500    0.1881 C   0  0  0  0  0
    3.1514    0.6373    0.0784 N   0  0  0  0  0
    1.9024    1.0243   -0.1749 C   0  0  0  0  0
    1.6509    2.2140   -0.2716 O   0  0  0  0  0
    0.9135    0.1244   -0.3262 N   0  0  0  0  0
    1.1742   -1.2091   -0.2219 C   0  0  0  0  0
    2.4401   -1.6186    0.0295 C   0  0  0  0  0
   -0.4507    0.5806   -0.6042 C   0  0  0  0  0
   -0.9387    1.4849    0.5541 C   0  0  0  0  0
   -2.7411    1.1334    0.5867 S   0  0  0  0  0
   -2.7021   -0.1196   -0.7570 C   0  0  0  0  0
   -3.6480   -1.2818   -0.4479 C   0  0  0  0  0
   -3.2717   -1.8855    0.7914 O   0  0  0  0  0
   -1.3195   -0.5544   -0.7237 O   0  0  0  0  0
    5.4413   -0.3695    0.5539 H   0  0  0  0  0
    4.9626   -1.9798    0.5329 H   0  0  0  0  0
    0.3806   -1.9315   -0.3429 H   0  0  0  0  0
    2.6692   -2.6705    0.1162 H   0  0  0  0  0
   -0.4620    1.1458   -1.5361 H   0  0  0  0  0
   -0.4700    1.1972    1.4952 H   0  0  0  0  0
   -0.7520    2.5355    0.3315 H   0  0  0  0  0
   -2.9454    0.3328   -1.7183 H   0  0  0  0  0
   -4.6697   -0.9092   -0.3752 H   0  0  0  0  0
   -3.5871   -2.0219   -1.2458 H   0  0  0  0  0
   -3.8297   -2.6315    1.0509 H   0  0  0  0  0
  1  2  1  0  0  0
  1 16  1  0  0  0
  1 17  1  0  0  0
  2  3  2  0  0  0
  2  8  1  0  0  0
  3  4  1  0  0  0
  4  5  2  0  0  0
  4  6  1  0  0  0
  6  7  1  0  0  0
  6  9  1  0  0  0
  7  8  2  0  0  0
  7 18  1  0  0  0
  8 19  1  0  0  0
  9 10  1  0  0  0
  9 15  1  0  0  0
  9 20  1  0  0  0
 10 11  1  0  0  0
 10 21  1  0  0  0
 10 22  1  0  0  0
 11 12  1  0  0  0
 12 13  1  0  0  0
 12 15  1  0  0  0
 12 23  1  0  0  0
 13 14  1  0  0  0
 13 24  1  0  0  0
 13 25  1  0  0  0
 14 26  1  0  0  0
M  END
>  <likely_enzyme_classes>
alcohol dehydrogenase; monooxygenase; amine dehydrogenase

>  <activity>
-10.1

>  <molID>
mol000133

>  <name>
lamivudine

>  <reference>
Prasse et al. (2015)

>  <speciation_state_pH7.4>
neutral

>  <substance_type>
antiviral drug

>  <smiles>
N=c1ccn([C@@H]2CS[C@H](CO)O2)c(O)n1

>  <inchi>
InChI=1S/C8H11N3O3S/c9-5-1-2-11(8(13)10-5)6-4-15-7(3-12)14-6/h1-2,6-7,12H,3-4H2,(H2,9,10,13)/t6-,7+/m0/s1

>  <inchikey>
JTEGQNOMFQHVDC-NKWVEPMBSA-N

$$$$
