estrone
 OpenBabel07241711303D
CORINA evaluation license 3.49 0066  11.04.2013
 42 45  0  0  0  0  0  0  0  0999 V2000
   -2.2147    0.5364   -1.6916 C   0  0  0  0  0
   -2.5433    0.5593   -0.1975 C   0  0  0  0  0
   -1.8943    1.7692    0.4398 C   0  0  0  0  0
   -0.3880    1.7136    0.1211 C   0  0  0  0  0
    0.2171    0.4074    0.6147 C   0  0  0  0  0
   -0.5138   -0.8078    0.0294 C   0  0  0  0  0
    0.1646   -2.0671    0.5692 C   0  0  0  0  0
    1.5454   -2.1799   -0.0756 C   0  0  0  0  0
    2.2963   -0.8772    0.0076 C   0  0  0  0  0
    1.6850    0.3215    0.3115 C   0  0  0  0  0
    2.4351    1.4891    0.3565 C   0  0  0  0  0
    3.7912    1.4628    0.1095 C   0  0  0  0  0
    4.4115    0.2575   -0.1869 C   0  0  0  0  0
    5.7487    0.2190   -0.4264 O   0  0  0  0  0
    3.6629   -0.9053   -0.2372 C   0  0  0  0  0
   -1.9591   -0.7141    0.4755 C   0  0  0  0  0
   -2.8992   -1.7941   -0.0749 C   0  0  0  0  0
   -4.2869   -1.0996   -0.0082 C   0  0  0  0  0
   -4.0218    0.3956   -0.0122 C   0  0  0  0  0
   -4.8375    1.2794    0.0973 O   0  0  0  0  0
   -1.1343    0.5862   -1.8269 H   0  0  0  0  0
   -2.5940   -0.3853   -2.1329 H   0  0  0  0  0
   -2.6818    1.3919   -2.1795 H   0  0  0  0  0
   -2.3262    2.6808    0.0267 H   0  0  0  0  0
   -2.0450    1.7439    1.5190 H   0  0  0  0  0
   -0.2457    1.7907   -0.9568 H   0  0  0  0  0
    0.1136    2.5490    0.6096 H   0  0  0  0  0
    0.1077    0.3747    1.6987 H   0  0  0  0  0
   -0.4514   -0.7902   -1.0587 H   0  0  0  0  0
    0.2693   -1.9931    1.6516 H   0  0  0  0  0
   -0.4321   -2.9435    0.3160 H   0  0  0  0  0
    2.1163   -2.9543    0.4366 H   0  0  0  0  0
    1.4285   -2.4582   -1.1230 H   0  0  0  0  0
    1.9515    2.4269    0.5867 H   0  0  0  0  0
    4.3675    2.3754    0.1462 H   0  0  0  0  0
    6.2858    0.0737    0.3644 H   0  0  0  0  0
    4.1459   -1.8431   -0.4685 H   0  0  0  0  0
   -2.0256   -0.6590    1.5620 H   0  0  0  0  0
   -2.6408   -2.0443   -1.1039 H   0  0  0  0  0
   -2.8802   -2.6822    0.5568 H   0  0  0  0  0
   -4.8879   -1.3825   -0.8725 H   0  0  0  0  0
   -4.8005   -1.3792    0.9116 H   0  0  0  0  0
  1  2  1  0  0  0
  1 21  1  0  0  0
  1 22  1  0  0  0
  1 23  1  0  0  0
  2  3  1  0  0  0
  2 16  1  0  0  0
  2 19  1  0  0  0
  3  4  1  0  0  0
  3 24  1  0  0  0
  3 25  1  0  0  0
  4  5  1  0  0  0
  4 26  1  0  0  0
  4 27  1  0  0  0
  5  6  1  0  0  0
  5 10  1  0  0  0
  5 28  1  0  0  0
  6  7  1  0  0  0
  6 16  1  0  0  0
  6 29  1  0  0  0
  7  8  1  0  0  0
  7 30  1  0  0  0
  7 31  1  0  0  0
  8  9  1  0  0  0
  8 32  1  0  0  0
  8 33  1  0  0  0
  9 10  2  0  0  0
  9 15  1  0  0  0
 10 11  1  0  0  0
 11 12  2  0  0  0
 11 34  1  0  0  0
 12 13  1  0  0  0
 12 35  1  0  0  0
 13 14  1  0  0  0
 13 15  2  0  0  0
 14 36  1  0  0  0
 15 37  1  0  0  0
 16 17  1  0  0  0
 16 38  1  0  0  0
 17 18  1  0  0  0
 17 39  1  0  0  0
 17 40  1  0  0  0
 18 19  1  0  0  0
 18 41  1  0  0  0
 18 42  1  0  0  0
 19 20  2  0  0  0
M  END
>  <likely_enzyme_classes>
monooxygenase

>  <activity>
-9

>  <molID>
mol000012

>  <name>
estrone

>  <reference>
Jurgens et al. (2002); Cormier et al. (2015)

>  <speciation_state_pH7.4>
neutral

>  <substance_type>
steroidal drug

>  <smiles>
C[C@]12CC[C@@H]3c4ccc(O)cc4CC[C@H]3[C@@H]1CCC2=O

>  <inchi>
InChI=1S/C18H22O2/c1-18-9-8-14-13-5-3-12(19)10-11(13)2-4-15(14)16(18)6-7-17(18)20/h3,5,10,14-16,19H,2,4,6-9H2,1H3/t14-,15-,16+,18+/m1/s1

>  <inchikey>
DNXHEGUUPJUMQT-CBZIJGRNSA-N

$$$$
