2,4-D methylester
 OpenBabel07241711303D
CORINA evaluation license 3.49 0066  11.04.2013
 22 22  0  0  0  0  0  0  0  0999 V2000
    5.7908    0.7061   -0.0000 C   0  0  0  0  0
    4.4477    1.2579   -0.0005 O   0  0  0  0  0
    3.4295    0.3832   -0.0003 C   0  0  0  0  0
    3.6531   -0.8042    0.0003 O   0  0  0  0  0
    2.0075    0.8822   -0.0008 C   0  0  0  0  0
    1.1119   -0.2313   -0.0004 O   0  0  0  0  0
   -0.2187    0.0469   -0.0008 C   0  0  0  0  0
   -1.1449   -0.9870   -0.0004 C   0  0  0  0  0
   -0.6052   -2.6370    0.0004 Cl  0  0  0  0  0
   -2.4977   -0.7015   -0.0003 C   0  0  0  0  0
   -2.9277    0.6134   -0.0006 C   0  0  0  0  0
   -4.6268    0.9696   -0.0004 Cl  0  0  0  0  0
   -2.0055    1.6451   -0.0004 C   0  0  0  0  0
   -0.6528    1.3642    0.0043 C   0  0  0  0  0
    5.9314    0.0931    0.8903 H   0  0  0  0  0
    5.9317    0.0923   -0.8897 H   0  0  0  0  0
    6.5174    1.5185   -0.0003 H   0  0  0  0  0
    1.8347    1.4878    0.8889 H   0  0  0  0  0
    1.8350    1.4870   -0.8911 H   0  0  0  0  0
   -3.2190   -1.5053   -0.0004 H   0  0  0  0  0
   -2.3435    2.6708   -0.0002 H   0  0  0  0  0
    0.0663    2.1699    0.0044 H   0  0  0  0  0
  1  2  1  0  0  0
  1 15  1  0  0  0
  1 16  1  0  0  0
  1 17  1  0  0  0
  2  3  1  0  0  0
  3  4  2  0  0  0
  3  5  1  0  0  0
  5  6  1  0  0  0
  5 18  1  0  0  0
  5 19  1  0  0  0
  6  7  1  0  0  0
  7  8  2  0  0  0
  7 14  1  0  0  0
  8  9  1  0  0  0
  8 10  1  0  0  0
 10 11  2  0  0  0
 10 20  1  0  0  0
 11 12  1  0  0  0
 11 13  1  0  0  0
 13 14  2  0  0  0
 13 21  1  0  0  0
 14 22  1  0  0  0
M  END
>  <likely_enzyme_classes>
esterase

>  <activity>
-9.2

>  <molID>
mol000099

>  <name>
2,4-D methylester

>  <reference>
Paris et al. (1984); Book chapter: Biodegradation analysis in water systems (14.3.2), from Environmental Xenobiotics by Richardson M.

>  <speciation_state_pH7.4>
neutral

>  <substance_type>
chemical substance

>  <smiles>
COC(=O)COc1ccc(Cl)cc1Cl

>  <inchi>
InChI=1S/C9H8Cl2O3/c1-13-9(12)5-14-8-3-2-6(10)4-7(8)11/h2-4H,5H2,1H3

>  <inchikey>
HWIGZMADSFQMOI-UHFFFAOYSA-N

$$$$
