2-chlorophenol
 OpenBabel07241711303D
CORINA evaluation license 3.49 0066  11.04.2013
 13 13  0  0  0  0  0  0  0  0999 V2000
   -0.5405    2.0381    0.0320 O   0  0  0  0  0
    0.2411    0.9261    0.0169 C   0  0  0  0  0
    1.6224    1.0480    0.0178 C   0  0  0  0  0
    2.4150   -0.0840    0.0024 C   0  0  0  0  0
    1.8324   -1.3374   -0.0144 C   0  0  0  0  0
    0.4552   -1.4626   -0.0154 C   0  0  0  0  0
   -0.3422   -0.3339    0.0063 C   0  0  0  0  0
   -2.0711   -0.4912    0.0057 Cl  0  0  0  0  0
   -0.7671    2.3715   -0.8469 H   0  0  0  0  0
    2.0785    2.0269    0.0302 H   0  0  0  0  0
    3.4908    0.0108    0.0031 H   0  0  0  0  0
    2.4540   -2.2206   -0.0272 H   0  0  0  0  0
    0.0025   -2.4431   -0.0289 H   0  0  0  0  0
  1  2  1  0  0  0
  1  9  1  0  0  0
  2  3  2  0  0  0
  2  7  1  0  0  0
  3  4  1  0  0  0
  3 10  1  0  0  0
  4  5  2  0  0  0
  4 11  1  0  0  0
  5  6  1  0  0  0
  5 12  1  0  0  0
  6  7  2  0  0  0
  6 13  1  0  0  0
  7  8  1  0  0  0
M  END
>  <likely_enzyme_classes>
monooxygenase

>  <activity>
-10

>  <molID>
mol000052

>  <name>
2-chlorophenol

>  <reference>
Mackay handbook of physical-chemical properties

>  <speciation_state_pH7.4>
neutral

>  <substance_type>
chemical substance

>  <smiles>
Oc1ccccc1Cl

>  <inchi>
InChI=1S/C6H5ClO/c7-5-3-1-2-4-6(5)8/h1-4,8H

>  <inchikey>
ISPYQTSUDJAMAB-UHFFFAOYSA-N

$$$$
