4-chlorophenol
 OpenBabel07241711303D
CORINA evaluation license 3.49 0066  11.04.2013
 13 13  0  0  0  0  0  0  0  0999 V2000
    3.2376   -0.0000   -0.0263 O   0  0  0  0  0
    1.8784   -0.0000   -0.0176 C   0  0  0  0  0
    1.1839    1.2008   -0.0148 C   0  0  0  0  0
   -0.1975    1.1988   -0.0065 C   0  0  0  0  0
   -0.8884   -0.0000   -0.0009 C   0  0  0  0  0
   -2.6244    0.0000    0.0095 Cl  0  0  0  0  0
   -0.1975   -1.1988   -0.0042 C   0  0  0  0  0
    1.1839   -1.2009   -0.0174 C   0  0  0  0  0
    3.6365    0.0011    0.8546 H   0  0  0  0  0
    1.7229    2.1367   -0.0187 H   0  0  0  0  0
   -0.7385    2.1335   -0.0039 H   0  0  0  0  0
   -0.7385   -2.1335   -0.0002 H   0  0  0  0  0
    1.7228   -2.1368   -0.0199 H   0  0  0  0  0
  1  2  1  0  0  0
  1  9  1  0  0  0
  2  3  2  0  0  0
  2  8  1  0  0  0
  3  4  1  0  0  0
  3 10  1  0  0  0
  4  5  2  0  0  0
  4 11  1  0  0  0
  5  6  1  0  0  0
  5  7  1  0  0  0
  7  8  2  0  0  0
  7 12  1  0  0  0
  8 13  1  0  0  0
M  END
>  <likely_enzyme_classes>
monooxygenase; dehalogenase

>  <activity>
-10.3

>  <molID>
mol000055

>  <name>
4-chlorophenol

>  <reference>
Mackay handbook of physical-chemical properties

>  <speciation_state_pH7.4>
neutral

>  <substance_type>
chemical substance

>  <smiles>
Oc1ccc(Cl)cc1

>  <inchi>
InChI=1S/C6H5ClO/c7-5-1-3-6(8)4-2-5/h1-4,8H

>  <inchikey>
WXNZTHHGJRFXKQ-UHFFFAOYSA-N

$$$$
