1,1,2-trichloroethane
 OpenBabel07241711303D
CORINA evaluation license 3.49 0066  11.04.2013
  8  7  0  0  0  0  0  0  0  0999 V2000
   -1.8700   -0.0000    0.3500 Cl  0  0  0  0  0
   -0.8583    0.0000   -1.1424 C   0  0  0  0  0
    0.6219    0.0000   -0.7552 C   0  0  0  0  0
    0.9882    1.4721    0.2193 Cl  0  0  0  0  0
    0.9882   -1.4721    0.2192 Cl  0  0  0  0  0
   -1.0797   -0.8900   -1.7315 H   0  0  0  0  0
   -1.0797    0.8900   -1.7315 H   0  0  0  0  0
    1.2335    0.0000   -1.6574 H   0  0  0  0  0
  1  2  1  0  0  0
  2  3  1  0  0  0
  2  6  1  0  0  0
  2  7  1  0  0  0
  3  4  1  0  0  0
  3  5  1  0  0  0
  3  8  1  0  0  0
M  END
>  <likely_enzyme_classes>
dehalogenase

>  <activity>
-11.6

>  <molID>
mol000101

>  <name>
1,1,2-trichloroethane

>  <reference>
Capel and Larson (1995)

>  <speciation_state_pH7.4>
neutral

>  <substance_type>
chemical substance

>  <smiles>
ClCC(Cl)Cl

>  <inchi>
InChI=1S/C2H3Cl3/c3-1-2(4)5/h2H,1H2

>  <inchikey>
UBOXGVDOUJQMTN-UHFFFAOYSA-N

$$$$
