sulfadiazine
 OpenBabel07241711303D
CORINA evaluation license 3.49 0066  11.04.2013
 27 28  0  0  0  0  0  0  0  0999 V2000
    4.3212    2.0909    0.3178 N   0  0  0  0  0
    3.2660    1.1870    0.1753 C   0  0  0  0  0
    3.1762    0.0838    1.0147 C   0  0  0  0  0
    2.1312   -0.8077    0.8714 C   0  0  0  0  0
    1.1749   -0.6032   -0.1064 C   0  0  0  0  0
    1.2613    0.4940   -0.9436 C   0  0  0  0  0
    2.3008    1.3923   -0.8023 C   0  0  0  0  0
   -0.1563   -1.7434   -0.2861 S   0  0  0  0  0
   -0.6162   -1.6155   -1.6245 O   0  0  0  0  0
    0.2911   -2.9732    0.2678 O   0  0  0  0  0
   -1.3893   -1.2145    0.6846 N   0  0  0  0  0
   -2.0151   -0.0100    0.4140 C   0  0  0  0  0
   -3.1741    0.2617    0.9956 N   0  0  0  0  0
   -3.7983    1.4035    0.7586 C   0  0  0  0  0
   -3.2256    2.3197   -0.1096 C   0  0  0  0  0
   -2.0125    2.0035   -0.7008 C   0  0  0  0  0
   -1.4383    0.8462   -0.4165 N   0  0  0  0  0
    4.9924    1.9486    1.0035 H   0  0  0  0  0
    4.3851    2.8587   -0.2715 H   0  0  0  0  0
    3.9229   -0.0767    1.7783 H   0  0  0  0  0
    2.0610   -1.6658    1.5234 H   0  0  0  0  0
    0.5128    0.6508   -1.7062 H   0  0  0  0  0
    2.3674    2.2492   -1.4563 H   0  0  0  0  0
   -1.6729   -1.7487    1.4429 H   0  0  0  0  0
   -4.7431    1.6192    1.2354 H   0  0  0  0  0
   -3.7141    3.2594   -0.3210 H   0  0  0  0  0
   -1.5398    2.6953   -1.3822 H   0  0  0  0  0
  1  2  1  0  0  0
  1 18  1  0  0  0
  1 19  1  0  0  0
  2  3  2  0  0  0
  2  7  1  0  0  0
  3  4  1  0  0  0
  3 20  1  0  0  0
  4  5  2  0  0  0
  4 21  1  0  0  0
  5  6  1  0  0  0
  5  8  1  0  0  0
  6  7  2  0  0  0
  6 22  1  0  0  0
  7 23  1  0  0  0
  8  9  2  0  0  0
  8 10  2  0  0  0
  8 11  1  0  0  0
 11 12  1  0  0  0
 11 24  1  0  0  0
 12 13  2  0  0  0
 12 17  1  0  0  0
 13 14  1  0  0  0
 14 15  2  0  0  0
 14 25  1  0  0  0
 15 16  1  0  0  0
 15 26  1  0  0  0
 16 17  2  0  0  0
 16 27  1  0  0  0
M  END
>  <likely_enzyme_classes>
sulfanilamide hydrolase

>  <activity>
-11.9

>  <molID>
mol000190

>  <name>
sulfadiazine

>  <reference>
Lai et al. (2011)

>  <speciation_state_pH7.4>
anionic

>  <substance_type>
antibacterial drug

>  <smiles>
Nc1ccc(S(=O)(=O)Nc2ncccn2)cc1

>  <inchi>
InChI=1S/C10H10N4O2S/c11-8-2-4-9(5-3-8)17(15,16)14-10-12-6-1-7-13-10/h1-7H,11H2,(H,12,13,14)

>  <inchikey>
SEEPANYCNGTZFQ-UHFFFAOYSA-N

$$$$
