phenol
 OpenBabel07241711303D
CORINA evaluation license 3.49 0066  11.04.2013
 13 13  0  0  0  0  0  0  0  0999 V2000
    2.2699   -0.0001   -0.0368 O   0  0  0  0  0
    0.9110   -0.0000   -0.0200 C   0  0  0  0  0
    0.2162    1.2008   -0.0126 C   0  0  0  0  0
   -1.1651    1.1981    0.0045 C   0  0  0  0  0
   -1.8553    0.0000    0.0142 C   0  0  0  0  0
   -1.1652   -1.1981    0.0073 C   0  0  0  0  0
    0.2161   -1.2008   -0.0160 C   0  0  0  0  0
    2.6740    0.0008    0.8417 H   0  0  0  0  0
    0.7548    2.1368   -0.0199 H   0  0  0  0  0
   -1.7065    2.1326    0.0106 H   0  0  0  0  0
   -2.9352    0.0000    0.0276 H   0  0  0  0  0
   -1.7065   -2.1326    0.0157 H   0  0  0  0  0
    0.7547   -2.1369   -0.0214 H   0  0  0  0  0
  1  2  1  0  0  0
  1  8  1  0  0  0
  2  3  2  0  0  0
  2  7  1  0  0  0
  3  4  1  0  0  0
  3  9  1  0  0  0
  4  5  2  0  0  0
  4 10  1  0  0  0
  5  6  1  0  0  0
  5 11  1  0  0  0
  6  7  2  0  0  0
  6 12  1  0  0  0
  7 13  1  0  0  0
M  END
>  <likely_enzyme_classes>
monooxygenase

>  <activity>
-9.2

>  <molID>
mol000022

>  <name>
phenol

>  <reference>
Paris and Rogers (1986); Book chapter: Biodegradation analysis in water systems (14.3.2), from Environmental Xenobiotics by Richardson M.; Mackay handbook of physical-chemical properties; Capel and Larson (1995)

>  <speciation_state_pH7.4>
neutral

>  <substance_type>
chemical substance

>  <smiles>
Oc1ccccc1

>  <inchi>
InChI=1S/C6H6O/c7-6-4-2-1-3-5-6/h1-5,7H

>  <inchikey>
ISWSIDIOOBJBQZ-UHFFFAOYSA-N

$$$$
