cyclohexanone
 OpenBabel07241711303D
CORINA evaluation license 3.49 0066  11.04.2013
 17 17  0  0  0  0  0  0  0  0999 V2000
   -2.1679   -0.0015    0.3208 O   0  0  0  0  0
   -1.0383   -0.0004   -0.1061 C   0  0  0  0  0
   -0.3133    1.2990   -0.3784 C   0  0  0  0  0
    1.0500    1.2517    0.3196 C   0  0  0  0  0
    1.8077    0.0011   -0.1293 C   0  0  0  0  0
    1.0513   -1.2514    0.3164 C   0  0  0  0  0
   -0.3099   -1.2983   -0.3762 C   0  0  0  0  0
   -0.1708    1.4206   -1.4522 H   0  0  0  0  0
   -0.8963    2.1326    0.0131 H   0  0  0  0  0
    1.6247    2.1394    0.0553 H   0  0  0  0  0
    0.9046    1.2207    1.3994 H   0  0  0  0  0
    1.8978    0.0025   -1.2156 H   0  0  0  0  0
    2.8027    0.0010    0.3157 H   0  0  0  0  0
    1.6269   -2.1379    0.0499 H   0  0  0  0  0
    0.9059   -1.2232    1.3963 H   0  0  0  0  0
   -0.8908   -2.1340    0.0142 H   0  0  0  0  0
   -0.1700   -1.4165   -1.4507 H   0  0  0  0  0
  1  2  2  0  0  0
  2  3  1  0  0  0
  2  7  1  0  0  0
  3  4  1  0  0  0
  3  8  1  0  0  0
  3  9  1  0  0  0
  4  5  1  0  0  0
  4 10  1  0  0  0
  4 11  1  0  0  0
  5  6  1  0  0  0
  5 12  1  0  0  0
  5 13  1  0  0  0
  6  7  1  0  0  0
  6 14  1  0  0  0
  6 15  1  0  0  0
  7 16  1  0  0  0
  7 17  1  0  0  0
M  END
>  <likely_enzyme_classes>
monooxygenase

>  <activity>
-9.4

>  <molID>
mol000011

>  <name>
cyclohexanone

>  <reference>
Mackay handbook of physical-chemical properties

>  <speciation_state_pH7.4>
neutral

>  <substance_type>
chemical substance

>  <smiles>
O=C1CCCCC1

>  <inchi>
InChI=1S/C6H10O/c7-6-4-2-1-3-5-6/h1-5H2

>  <inchikey>
JHIVVAPYMSGYDF-UHFFFAOYSA-N

$$$$
