tylosin
 OpenBabel07241711303D
CORINA evaluation license 3.49 0066  11.04.2013
141144  0  0  0  0  0  0  0  0999 V2000
    4.6388    4.5978    0.9025 C   0  0  0  0  0
    5.2869    3.2164    0.7909 C   0  0  0  0  0
    4.3366    2.1578    1.3648 C   0  0  0  0  0
    3.1456    2.0913    0.5467 O   0  0  0  0  0
    2.1903    3.0082    0.7776 C   0  0  0  0  0
    2.2388    3.7037    1.7641 O   0  0  0  0  0
    1.0675    3.1994   -0.2109 C   0  0  0  0  0
   -0.2765    2.9509    0.4700 C   0  0  0  0  0
   -0.7729    4.1761    1.0147 O   0  0  0  0  0
   -1.2901    2.4074   -0.5464 C   0  0  0  0  0
   -1.4446    3.3942   -1.6936 C   0  0  0  0  0
   -0.8667    1.0066   -0.9693 C   0  0  0  0  0
   -1.6533    0.0787   -0.1965 O   0  0  0  0  0
   -3.0532    0.1270   -0.4794 C   0  0  0  0  0
   -3.6272    1.2745    0.1497 O   0  0  0  0  0
   -5.0267    1.4334   -0.0918 C   0  0  0  0  0
   -5.5235    2.7028    0.6031 C   0  0  0  0  0
   -5.7795    0.2206    0.4615 C   0  0  0  0  0
   -7.1725    0.3495    0.1701 O   0  0  0  0  0
   -7.9509    0.8456    1.2610 C   0  0  0  0  0
   -9.3294    1.2741    0.7513 C   0  0  0  0  0
  -10.0560    0.0529    0.1793 C   0  0  0  0  0
  -11.4649    0.4554   -0.2611 C   0  0  0  0  0
   -9.3304   -0.4526   -0.9433 O   0  0  0  0  0
  -10.1464   -1.0271    1.2618 C   0  0  0  0  0
  -10.7579   -2.1985    0.7178 O   0  0  0  0  0
   -8.7363   -1.3667    1.7518 C   0  0  0  0  0
   -8.8221   -2.4015    2.8755 C   0  0  0  0  0
   -8.1056   -0.1819    2.2422 O   0  0  0  0  0
   -5.2348   -1.0516   -0.1952 C   0  0  0  0  0
   -3.7267   -1.1383    0.0582 C   0  0  0  0  0
   -3.1950   -2.2835   -0.6111 O   0  0  0  0  0
   -5.8989   -2.2268    0.3845 N   0  0  0  0  0
   -5.6377   -3.4287   -0.4187 C   0  0  0  0  0
   -5.4893   -2.4275    1.7809 C   0  0  0  0  0
   -1.0527    0.6878   -2.4403 C   0  0  0  0  0
    0.1103    1.1891   -3.2929 C   0  0  0  0  0
   -0.2084    0.9787   -4.7507 C   0  0  0  0  0
    0.5055    0.2810   -5.4303 O   0  0  0  0  0
   -1.2563   -0.8066   -2.6664 C   0  0  0  0  0
   -0.1089   -1.7078   -2.2724 C   0  0  0  0  0
    0.7681   -2.0600   -3.4748 C   0  0  0  0  0
    0.7173   -1.2050   -1.1255 C   0  0  0  0  0
    0.2693   -1.3654    0.0009 O   0  0  0  0  0
    1.9420   -0.5653   -1.2889 C   0  0  0  0  0
    2.9322   -0.3350   -0.4156 C   0  0  0  0  0
    3.2143   -0.8488    0.8983 C   0  0  0  0  0
    2.5019   -2.0509    1.4885 C   0  0  0  0  0
    4.1453   -0.3214    1.7051 C   0  0  0  0  0
    5.0598    0.8193    1.4277 C   0  0  0  0  0
    5.9188    0.5914    0.1871 C   0  0  0  0  0
    6.7574   -0.5475    0.3910 O   0  0  0  0  0
    7.6070   -0.8497   -0.7176 C   0  0  0  0  0
    8.6149    0.1566   -0.8337 O   0  0  0  0  0
    9.4362    0.2965    0.3274 C   0  0  0  0  0
   10.4548    1.4153    0.1001 C   0  0  0  0  0
   10.1732   -1.0192    0.5910 C   0  0  0  0  0
   10.9504   -0.9004    1.7842 O   0  0  0  0  0
    9.1481   -2.1451    0.7577 C   0  0  0  0  0
    8.3308   -1.8821    1.9000 O   0  0  0  0  0
    8.8400   -2.4300    3.1176 C   0  0  0  0  0
    8.2705   -2.2114   -0.4960 C   0  0  0  0  0
    7.2638   -3.2105   -0.3219 O   0  0  0  0  0
    6.8494   -3.8362   -1.5379 C   0  0  0  0  0
    3.7039    4.6069    0.3422 H   0  0  0  0  0
    4.4367    4.8208    1.9501 H   0  0  0  0  0
    5.3141    5.3500    0.4946 H   0  0  0  0  0
    5.4890    2.9935   -0.2568 H   0  0  0  0  0
    6.2218    3.2074    1.3512 H   0  0  0  0  0
    4.0554    2.4569    2.3806 H   0  0  0  0  0
    1.1005    4.2259   -0.5843 H   0  0  0  0  0
    1.2020    2.5103   -1.0424 H   0  0  0  0  0
   -0.1516    2.2249    1.2735 H   0  0  0  0  0
   -0.1906    4.5779    1.6740 H   0  0  0  0  0
   -2.2622    2.3275   -0.0282 H   0  0  0  0  0
   -0.4813    3.5351   -2.1838 H   0  0  0  0  0
   -2.1649    3.0050   -2.4132 H   0  0  0  0  0
   -1.7982    4.3496   -1.3060 H   0  0  0  0  0
    0.1833    0.8693   -0.6892 H   0  0  0  0  0
   -3.2043    0.1895   -1.5571 H   0  0  0  0  0
   -5.2038    1.5132   -1.1643 H   0  0  0  0  0
   -4.9993    3.5680    0.1974 H   0  0  0  0  0
   -6.5944    2.8144    0.4336 H   0  0  0  0  0
   -5.3307    2.6302    1.6735 H   0  0  0  0  0
   -5.6367    0.1644    1.5406 H   0  0  0  0  0
   -7.4462    1.7021    1.7079 H   0  0  0  0  0
   -9.9093    1.6900    1.5752 H   0  0  0  0  0
   -9.2117    2.0263   -0.0287 H   0  0  0  0  0
  -11.3993    1.2294   -1.0257 H   0  0  0  0  0
  -11.9807   -0.4144   -0.6679 H   0  0  0  0  0
  -12.0183    0.8378    0.5966 H   0  0  0  0  0
   -9.2299    0.1829   -1.6652 H   0  0  0  0  0
  -10.7437   -0.6580    2.0955 H   0  0  0  0  0
  -10.8475   -2.9249    1.3497 H   0  0  0  0  0
   -8.1529   -1.7742    0.9262 H   0  0  0  0  0
   -9.3041   -3.3048    2.5016 H   0  0  0  0  0
   -7.8181   -2.6432    3.2243 H   0  0  0  0  0
   -9.4052   -1.9937    3.7012 H   0  0  0  0  0
   -5.4229   -1.0173   -1.2683 H   0  0  0  0  0
   -3.5415   -1.2237    1.1290 H   0  0  0  0  0
   -2.2424   -2.4007   -0.4936 H   0  0  0  0  0
   -4.5866   -3.7033   -0.3305 H   0  0  0  0  0
   -6.2590   -4.2486   -0.0584 H   0  0  0  0  0
   -5.8738   -3.2259   -1.4634 H   0  0  0  0  0
   -5.7577   -1.5493    2.3681 H   0  0  0  0  0
   -5.9956   -3.3039    2.1856 H   0  0  0  0  0
   -4.4107   -2.5784    1.8250 H   0  0  0  0  0
   -1.9740    1.1803   -2.8039 H   0  0  0  0  0
    0.2672    2.2512   -3.1049 H   0  0  0  0  0
    1.0141    0.6371   -3.0352 H   0  0  0  0  0
   -1.0753    1.4520   -5.1877 H   0  0  0  0  0
   -2.1684   -1.1230   -2.1397 H   0  0  0  0  0
   -1.4657   -0.9556   -3.7419 H   0  0  0  0  0
   -0.5555   -2.6715   -1.9301 H   0  0  0  0  0
    1.1796   -1.1466   -3.9043 H   0  0  0  0  0
    1.5825   -2.7090   -3.1529 H   0  0  0  0  0
    0.1673   -2.5753   -4.2242 H   0  0  0  0  0
    2.1597   -0.1738   -2.3056 H   0  0  0  0  0
    3.6504    0.4207   -0.8076 H   0  0  0  0  0
    1.8386   -2.4838    0.7397 H   0  0  0  0  0
    3.2373   -2.7944    1.7958 H   0  0  0  0  0
    1.9178   -1.7382    2.3540 H   0  0  0  0  0
    4.2297   -0.8063    2.6917 H   0  0  0  0  0
    5.7671    0.8829    2.2879 H   0  0  0  0  0
    5.2739    0.4183   -0.6744 H   0  0  0  0  0
    6.5375    1.4706    0.0071 H   0  0  0  0  0
    7.0148   -0.8782   -1.6322 H   0  0  0  0  0
    8.8121    0.5422    1.1866 H   0  0  0  0  0
    9.9299    2.3518   -0.0885 H   0  0  0  0  0
   11.0811    1.5219    0.9858 H   0  0  0  0  0
   11.0791    1.1693   -0.7589 H   0  0  0  0  0
   10.8291   -1.2440   -0.2501 H   0  0  0  0  0
   11.6180   -0.2016    1.7509 H   0  0  0  0  0
    9.6674   -3.0941    0.8915 H   0  0  0  0  0
    8.9214   -3.5128    3.0227 H   0  0  0  0  0
    9.8241   -2.0082    3.3222 H   0  0  0  0  0
    8.1631   -2.1869    3.9365 H   0  0  0  0  0
    8.8869   -2.4620   -1.3593 H   0  0  0  0  0
    6.4423   -3.0838   -2.2134 H   0  0  0  0  0
    7.7055   -4.3207   -2.0073 H   0  0  0  0  0
    6.0842   -4.5815   -1.3207 H   0  0  0  0  0
  1  2  1  0  0  0
  1 65  1  0  0  0
  1 66  1  0  0  0
  1 67  1  0  0  0
  2  3  1  0  0  0
  2 68  1  0  0  0
  2 69  1  0  0  0
  3  4  1  0  0  0
  3 50  1  0  0  0
  3 70  1  0  0  0
  4  5  1  0  0  0
  5  6  2  0  0  0
  5  7  1  0  0  0
  7  8  1  0  0  0
  7 71  1  0  0  0
  7 72  1  0  0  0
  8  9  1  0  0  0
  8 10  1  0  0  0
  8 73  1  0  0  0
  9 74  1  0  0  0
 10 11  1  0  0  0
 10 12  1  0  0  0
 10 75  1  0  0  0
 11 76  1  0  0  0
 11 77  1  0  0  0
 11 78  1  0  0  0
 12 13  1  0  0  0
 12 36  1  0  0  0
 12 79  1  0  0  0
 13 14  1  0  0  0
 14 15  1  0  0  0
 14 31  1  0  0  0
 14 80  1  0  0  0
 15 16  1  0  0  0
 16 17  1  0  0  0
 16 18  1  0  0  0
 16 81  1  0  0  0
 17 82  1  0  0  0
 17 83  1  0  0  0
 17 84  1  0  0  0
 18 19  1  0  0  0
 18 30  1  0  0  0
 18 85  1  0  0  0
 19 20  1  0  0  0
 20 21  1  0  0  0
 20 29  1  0  0  0
 20 86  1  0  0  0
 21 22  1  0  0  0
 21 87  1  0  0  0
 21 88  1  0  0  0
 22 23  1  0  0  0
 22 24  1  0  0  0
 22 25  1  0  0  0
 23 89  1  0  0  0
 23 90  1  0  0  0
 23 91  1  0  0  0
 24 92  1  0  0  0
 25 26  1  0  0  0
 25 27  1  0  0  0
 25 93  1  0  0  0
 26 94  1  0  0  0
 27 28  1  0  0  0
 27 29  1  0  0  0
 27 95  1  0  0  0
 28 96  1  0  0  0
 28 97  1  0  0  0
 28 98  1  0  0  0
 30 31  1  0  0  0
 30 33  1  0  0  0
 30 99  1  0  0  0
 31 32  1  0  0  0
 31100  1  0  0  0
 32101  1  0  0  0
 33 34  1  0  0  0
 33 35  1  0  0  0
 34102  1  0  0  0
 34103  1  0  0  0
 34104  1  0  0  0
 35105  1  0  0  0
 35106  1  0  0  0
 35107  1  0  0  0
 36 37  1  0  0  0
 36 40  1  0  0  0
 36108  1  0  0  0
 37 38  1  0  0  0
 37109  1  0  0  0
 37110  1  0  0  0
 38 39  2  0  0  0
 38111  1  0  0  0
 40 41  1  0  0  0
 40112  1  0  0  0
 40113  1  0  0  0
 41 42  1  0  0  0
 41 43  1  0  0  0
 41114  1  0  0  0
 42115  1  0  0  0
 42116  1  0  0  0
 42117  1  0  0  0
 43 44  2  0  0  0
 43 45  1  0  0  0
 45 46  2  0  0  0
 45118  1  0  0  0
 46 47  1  0  0  0
 46119  1  0  0  0
 47 48  1  0  0  0
 47 49  2  0  0  0
 48120  1  0  0  0
 48121  1  0  0  0
 48122  1  0  0  0
 49 50  1  0  0  0
 49123  1  0  0  0
 50 51  1  0  0  0
 50124  1  0  0  0
 51 52  1  0  0  0
 51125  1  0  0  0
 51126  1  0  0  0
 52 53  1  0  0  0
 53 54  1  0  0  0
 53 62  1  0  0  0
 53127  1  0  0  0
 54 55  1  0  0  0
 55 56  1  0  0  0
 55 57  1  0  0  0
 55128  1  0  0  0
 56129  1  0  0  0
 56130  1  0  0  0
 56131  1  0  0  0
 57 58  1  0  0  0
 57 59  1  0  0  0
 57132  1  0  0  0
 58133  1  0  0  0
 59 60  1  0  0  0
 59 62  1  0  0  0
 59134  1  0  0  0
 60 61  1  0  0  0
 61135  1  0  0  0
 61136  1  0  0  0
 61137  1  0  0  0
 62 63  1  0  0  0
 62138  1  0  0  0
 63 64  1  0  0  0
 64139  1  0  0  0
 64140  1  0  0  0
 64141  1  0  0  0
M  END
>  <likely_enzyme_classes>
aldehyde dehydrogenase

>  <activity>
-12.7

>  <molID>
mol000188

>  <name>
tylosin

>  <reference>
Hu and Coats (2007)

>  <speciation_state_pH7.4>
neutral

>  <substance_type>
antibacterial drug

>  <smiles>
CC[C@H]1OC(=O)C[C@@H](O)C(C)[C@@H](O[C@@H]2O[C@H](C)[C@@H](O[C@H]3C[C@@](C)(O)[C@@H](O)[C@H](C)O3)[C@H](N(C)C)[C@H]2O)[C@@H](CC=O)C[C@@H](C)C(=O)/C=C\C(C)=C/C1COC1O[C@H](C)[C@@H](O)[C@@H](OC)[C@H]1OC

>  <inchi>
InChI=1S/C46H77NO17/c1-13-33-30(22-58-45-42(57-12)41(56-11)37(52)26(5)60-45)18-23(2)14-15-31(49)24(3)19-29(16-17-48)39(25(4)32(50)20-34(51)62-33)64-44-38(53)36(47(9)10)40(27(6)61-44)63-35-21-46(8,55)43(54)28(7)59-35/h14-15,17-18,24-30,32-33,35-45,50,52-55H,13,16,19-22H2,1-12H3/b15-14-,23-18-/t24-,25?,26-,27-,28+,29+,30?,32-,33-,35+,36-,37-,38-,39-,40-,41-,42-,43+,44+,45?,46-/m1/s1

>  <inchikey>
WBPYTXDJUQJLPQ-HLIPPNOOSA-N

$$$$
