zidovudine
 OpenBabel07241711303D
CORINA evaluation license 3.49 0066  11.04.2013
 32 33  0  0  0  0  0  0  0  0999 V2000
    4.6824   -0.4256   -1.6131 C   0  0  0  0  0
    3.4743   -0.2289   -0.7341 C   0  0  0  0  0
    2.2414   -0.1351   -1.2767 C   0  0  0  0  0
    1.1551    0.0429   -0.4639 N   0  0  0  0  0
   -0.1826    0.1447   -1.0525 C   0  0  0  0  0
   -1.0433   -1.0536   -0.6076 C   0  0  0  0  0
   -2.2556   -0.4062    0.1051 C   0  0  0  0  0
   -3.4986   -1.0976   -0.2457 N   0  0  0  0  0
   -3.6637   -2.1593    0.0845 N   0  0  0  0  0
   -3.8287   -3.2209    0.4147 N   0  0  0  0  0
   -2.2411    1.0323   -0.4716 C   0  0  0  0  0
   -2.9287    2.0048    0.4888 C   0  0  0  0  0
   -3.0052    3.2973   -0.1159 O   0  0  0  0  0
   -0.8341    1.3367   -0.5823 O   0  0  0  0  0
    1.3039    0.1250    0.8707 C   0  0  0  0  0
    0.3250    0.2830    1.5744 O   0  0  0  0  0
    2.5211    0.0343    1.4380 N   0  0  0  0  0
    3.6161   -0.1458    0.6721 C   0  0  0  0  0
    4.7178   -0.2280    1.1845 O   0  0  0  0  0
    5.0845    0.5458   -1.9008 H   0  0  0  0  0
    5.4415   -0.9859   -1.0673 H   0  0  0  0  0
    4.3951   -0.9791   -2.5071 H   0  0  0  0  0
    2.1134   -0.2000   -2.3471 H   0  0  0  0  0
   -0.1084    0.1644   -2.1398 H   0  0  0  0  0
   -1.3722   -1.6292   -1.4729 H   0  0  0  0  0
   -0.4875   -1.6867    0.0840 H   0  0  0  0  0
   -2.1108   -0.3943    1.1854 H   0  0  0  0  0
   -2.7200    1.0583   -1.4504 H   0  0  0  0  0
   -3.9343    1.6470    0.7099 H   0  0  0  0  0
   -2.3547    2.0694    1.4131 H   0  0  0  0  0
   -3.4306    3.9661    0.4381 H   0  0  0  0  0
    2.6106    0.0956    2.4020 H   0  0  0  0  0
  1  2  1  0  0  0
  1 20  1  0  0  0
  1 21  1  0  0  0
  1 22  1  0  0  0
  2  3  2  0  0  0
  2 18  1  0  0  0
  3  4  1  0  0  0
  3 23  1  0  0  0
  4  5  1  0  0  0
  4 15  1  0  0  0
  5  6  1  0  0  0
  5 14  1  0  0  0
  5 24  1  0  0  0
  6  7  1  0  0  0
  6 25  1  0  0  0
  6 26  1  0  0  0
  7  8  1  0  0  0
  7 11  1  0  0  0
  7 27  1  0  0  0
  8  9  2  0  0  0
  9 10  2  0  0  0
 11 12  1  0  0  0
 11 14  1  0  0  0
 11 28  1  0  0  0
 12 13  1  0  0  0
 12 29  1  0  0  0
 12 30  1  0  0  0
 13 31  1  0  0  0
 15 16  2  0  0  0
 15 17  1  0  0  0
 17 18  1  0  0  0
 17 32  1  0  0  0
 18 19  2  0  0  0
M  CHG  2   9   1  10  -1
M  END
>  <likely_enzyme_classes>
alcohol dehydrogenase; amine dehydrogenase

>  <activity>
-10.1

>  <molID>
mol000137

>  <name>
zidovudine

>  <reference>
Prasse et al. (2015)

>  <speciation_state_pH7.4>
neutral

>  <substance_type>
antiviral drug

>  <smiles>
Cc1cn([C@H]2C[C@H](N=[N+]=[N-])[C@@H](CO)O2)c(=O)nc1O

>  <inchi>
InChI=1S/C10H13N5O4/c1-5-3-15(10(18)12-9(5)17)8-2-6(13-14-11)7(4-16)19-8/h3,6-8,16H,2,4H2,1H3,(H,12,17,18)/t6-,7+,8+/m0/s1

>  <inchikey>
HBOMLICNUCNMMY-XLPZGREQSA-N

$$$$
