Novobiocin
 OpenBabel07241711303D
CORINA evaluation license 3.49 0066  11.04.2013
 80 83  0  0  0  0  0  0  0  0999 V2000
    2.3647    3.6303   -0.7568 C   0  0  0  0  0
    1.8814    2.2831   -0.2849 C   0  0  0  0  0
    2.7848    1.2545   -0.0770 C   0  0  0  0  0
    2.3479    0.0056    0.3586 C   0  0  0  0  0
    1.0202   -0.2204    0.5870 C   0  0  0  0  0
    0.0978    0.8063    0.3826 C   0  0  0  0  0
    0.5301    2.0705   -0.0515 C   0  0  0  0  0
   -0.3694    3.0574   -0.2457 O   0  0  0  0  0
   -1.6816    2.8818   -0.0389 C   0  0  0  0  0
   -2.2044    1.6967    0.3823 C   0  0  0  0  0
   -1.3429    0.5997    0.6191 C   0  0  0  0  0
   -1.7760   -0.4775    0.9967 O   0  0  0  0  0
   -3.5914    1.5656    0.5849 N   0  0  0  0  0
   -4.2876    0.6366   -0.0997 C   0  0  0  0  0
   -3.7056   -0.1470   -0.8254 O   0  0  0  0  0
   -5.7562    0.5699    0.0314 C   0  0  0  0  0
   -6.4797   -0.3925   -0.6774 C   0  0  0  0  0
   -7.8500   -0.4513   -0.5525 C   0  0  0  0  0
   -8.5131    0.4449    0.2773 C   0  0  0  0  0
   -7.7969    1.4039    0.9842 C   0  0  0  0  0
   -6.4262    1.4656    0.8692 C   0  0  0  0  0
   -9.8636    0.3840    0.3974 O   0  0  0  0  0
   -8.6315   -1.4886   -1.3169 C   0  0  0  0  0
   -8.9657   -2.6397   -0.4035 C   0  0  0  0  0
  -10.2110   -3.0187   -0.2561 C   0  0  0  0  0
  -11.3093   -2.3035   -0.9999 C   0  0  0  0  0
  -10.5452   -4.1698    0.6573 C   0  0  0  0  0
   -2.5182    3.9203   -0.2560 O   0  0  0  0  0
    4.1075    1.4648   -0.3001 O   0  0  0  0  0
    4.9878    0.3635   -0.0672 C   0  0  0  0  0
    6.4087    0.7479   -0.4879 C   0  0  0  0  0
    7.3564   -0.4153   -0.1795 C   0  0  0  0  0
    7.2632   -0.7539    1.3115 C   0  0  0  0  0
    5.8093   -1.0803    1.6627 C   0  0  0  0  0
    4.9775    0.0309    1.3226 O   0  0  0  0  0
    5.3592   -2.3138    0.8774 C   0  0  0  0  0
    5.6974   -1.3611    3.1626 C   0  0  0  0  0
    8.0888   -1.8848    1.5969 O   0  0  0  0  0
    9.4304   -1.5490    1.9566 C   0  0  0  0  0
    6.9743   -1.5747   -0.9657 O   0  0  0  0  0
    7.5416   -1.7038   -2.1799 C   0  0  0  0  0
    8.3342   -0.8703   -2.5719 O   0  0  0  0  0
    7.2302   -2.7573   -2.9606 N   0  0  0  0  0
    6.4332    1.0251   -1.8896 O   0  0  0  0  0
    2.3643    3.6552   -1.8465 H   0  0  0  0  0
    1.7028    4.4078   -0.3753 H   0  0  0  0  0
    3.3766    3.8023   -0.3898 H   0  0  0  0  0
    3.0627   -0.7885    0.5162 H   0  0  0  0  0
    0.6857   -1.1903    0.9244 H   0  0  0  0  0
   -4.0460    2.1440    1.2172 H   0  0  0  0  0
   -5.9652   -1.0890   -1.3227 H   0  0  0  0  0
   -8.3158    2.0986    1.6280 H   0  0  0  0  0
   -5.8704    2.2110    1.4187 H   0  0  0  0  0
  -10.1694   -0.1962    1.1080 H   0  0  0  0  0
   -9.5528   -1.0446   -1.6939 H   0  0  0  0  0
   -8.0337   -1.8503   -2.1535 H   0  0  0  0  0
   -8.1786   -3.1522    0.1295 H   0  0  0  0  0
  -11.1345   -2.3851   -2.0727 H   0  0  0  0  0
  -12.2697   -2.7560   -0.7528 H   0  0  0  0  0
  -11.3182   -1.2522   -0.7121 H   0  0  0  0  0
  -10.7318   -3.7933    1.6630 H   0  0  0  0  0
  -11.4357   -4.6792    0.2890 H   0  0  0  0  0
   -9.7098   -4.8696    0.6805 H   0  0  0  0  0
   -2.0751    4.7270   -0.5526 H   0  0  0  0  0
    4.6563   -0.4963   -0.6494 H   0  0  0  0  0
    6.7256    1.6323    0.0648 H   0  0  0  0  0
    8.3787   -0.1276   -0.4249 H   0  0  0  0  0
    7.5974    0.1002    1.9005 H   0  0  0  0  0
    6.0894   -3.1128    1.0062 H   0  0  0  0  0
    4.3888   -2.6455    1.2467 H   0  0  0  0  0
    5.2788   -2.0620   -0.1800 H   0  0  0  0  0
    6.0177   -0.4819    3.7217 H   0  0  0  0  0
    4.6622   -1.5934    3.4125 H   0  0  0  0  0
    6.3327   -2.2080    3.4220 H   0  0  0  0  0
    9.9011   -1.0057    1.1372 H   0  0  0  0  0
    9.4216   -0.9237    2.8494 H   0  0  0  0  0
    9.9919   -2.4613    2.1576 H   0  0  0  0  0
    6.5975   -3.4226   -2.6477 H   0  0  0  0  0
    7.6388   -2.8503   -3.8354 H   0  0  0  0  0
    5.8510    1.7492   -2.1575 H   0  0  0  0  0
  1  2  1  0  0  0
  1 45  1  0  0  0
  1 46  1  0  0  0
  1 47  1  0  0  0
  2  3  2  0  0  0
  2  7  1  0  0  0
  3  4  1  0  0  0
  3 29  1  0  0  0
  4  5  2  0  0  0
  4 48  1  0  0  0
  5  6  1  0  0  0
  5 49  1  0  0  0
  6  7  2  0  0  0
  6 11  1  0  0  0
  7  8  1  0  0  0
  8  9  1  0  0  0
  9 10  2  0  0  0
  9 28  1  0  0  0
 10 11  1  0  0  0
 10 13  1  0  0  0
 11 12  2  0  0  0
 13 14  1  0  0  0
 13 50  1  0  0  0
 14 15  2  0  0  0
 14 16  1  0  0  0
 16 17  2  0  0  0
 16 21  1  0  0  0
 17 18  1  0  0  0
 17 51  1  0  0  0
 18 19  2  0  0  0
 18 23  1  0  0  0
 19 20  1  0  0  0
 19 22  1  0  0  0
 20 21  2  0  0  0
 20 52  1  0  0  0
 21 53  1  0  0  0
 22 54  1  0  0  0
 23 24  1  0  0  0
 23 55  1  0  0  0
 23 56  1  0  0  0
 24 25  2  0  0  0
 24 57  1  0  0  0
 25 26  1  0  0  0
 25 27  1  0  0  0
 26 58  1  0  0  0
 26 59  1  0  0  0
 26 60  1  0  0  0
 27 61  1  0  0  0
 27 62  1  0  0  0
 27 63  1  0  0  0
 28 64  1  0  0  0
 29 30  1  0  0  0
 30 31  1  0  0  0
 30 35  1  0  0  0
 30 65  1  0  0  0
 31 32  1  0  0  0
 31 44  1  0  0  0
 31 66  1  0  0  0
 32 33  1  0  0  0
 32 40  1  0  0  0
 32 67  1  0  0  0
 33 34  1  0  0  0
 33 38  1  0  0  0
 33 68  1  0  0  0
 34 35  1  0  0  0
 34 36  1  0  0  0
 34 37  1  0  0  0
 36 69  1  0  0  0
 36 70  1  0  0  0
 36 71  1  0  0  0
 37 72  1  0  0  0
 37 73  1  0  0  0
 37 74  1  0  0  0
 38 39  1  0  0  0
 39 75  1  0  0  0
 39 76  1  0  0  0
 39 77  1  0  0  0
 40 41  1  0  0  0
 41 42  2  0  0  0
 41 43  1  0  0  0
 43 78  1  0  0  0
 43 79  1  0  0  0
 44 80  1  0  0  0
M  END
>  <likely_enzyme_classes>
monooxygenase; amidohydrolase

>  <activity>
-11.2

>  <molID>
mol000198

>  <name>
Novobiocin

>  <reference>
Baena-Nogueras et al. (2017)

>  <speciation_state_pH7.4>
anionic

>  <substance_type>
antibacterial drug

>  <smiles>
COC1C(OC(=N)O)C(O)C(Oc2ccc3c(=O)c(NC(=O)c4ccc(O)c(CC=C(C)C)c4)c(O)oc3c2C)OC1(C)C

>  <inchi>
InChI=1S/C31H36N2O11/c1-14(2)7-8-16-13-17(9-11-19(16)34)27(37)33-21-22(35)18-10-12-20(15(3)24(18)42-28(21)38)41-29-23(36)25(43-30(32)39)26(40-6)31(4,5)44-29/h7,9-13,23,25-26,29,34,36,38H,8H2,1-6H3,(H2,32,39)(H,33,37)

>  <inchikey>
DYYIUCVAQGRACE-UHFFFAOYSA-N

$$$$
