emtricitabine
 OpenBabel07241711303D
CORINA evaluation license 3.49 0066  11.04.2013
 26 27  0  0  0  0  0  0  0  0999 V2000
    4.6129   -0.3341    0.4162 N   0  0  0  0  0
    3.2833   -0.0850    0.1632 C   0  0  0  0  0
    2.8440    1.1633    0.0729 N   0  0  0  0  0
    1.5597    1.4170   -0.1715 C   0  0  0  0  0
    1.1814    2.5742   -0.2502 O   0  0  0  0  0
    0.6723    0.4185   -0.3335 N   0  0  0  0  0
    1.0757   -0.8824   -0.2497 C   0  0  0  0  0
    2.3804   -1.1565   -0.0073 C   0  0  0  0  0
    2.8082   -2.4349    0.0805 F   0  0  0  0  0
   -0.7341    0.7296   -0.6008 C   0  0  0  0  0
   -1.3113    1.5595    0.5722 C   0  0  0  0  0
   -3.0653    1.0161    0.6044 S   0  0  0  0  0
   -2.8980   -0.2059   -0.7578 C   0  0  0  0  0
   -3.7124   -1.4672   -0.4635 C   0  0  0  0  0
   -3.2682   -2.0450    0.7657 O   0  0  0  0  0
   -1.4767   -0.4902   -0.7348 O   0  0  0  0  0
    5.2318    0.4042    0.5290 H   0  0  0  0  0
    4.9305   -1.2480    0.4857 H   0  0  0  0  0
    0.3640   -1.6843   -0.3792 H   0  0  0  0  0
   -0.8100    1.3039   -1.5242 H   0  0  0  0  0
   -0.8103    1.3100    1.5076 H   0  0  0  0  0
   -1.2394    2.6271    0.3647 H   0  0  0  0  0
   -3.1927    0.2317   -1.7117 H   0  0  0  0  0
   -4.7679   -1.2075   -0.3824 H   0  0  0  0  0
   -3.5760   -2.1848   -1.2725 H   0  0  0  0  0
   -3.7417   -2.8502    1.0156 H   0  0  0  0  0
  1  2  1  0  0  0
  1 17  1  0  0  0
  1 18  1  0  0  0
  2  3  2  0  0  0
  2  8  1  0  0  0
  3  4  1  0  0  0
  4  5  2  0  0  0
  4  6  1  0  0  0
  6  7  1  0  0  0
  6 10  1  0  0  0
  7  8  2  0  0  0
  7 19  1  0  0  0
  8  9  1  0  0  0
 10 11  1  0  0  0
 10 16  1  0  0  0
 10 20  1  0  0  0
 11 12  1  0  0  0
 11 21  1  0  0  0
 11 22  1  0  0  0
 12 13  1  0  0  0
 13 14  1  0  0  0
 13 16  1  0  0  0
 13 23  1  0  0  0
 14 15  1  0  0  0
 14 24  1  0  0  0
 14 25  1  0  0  0
 15 26  1  0  0  0
M  END
>  <likely_enzyme_classes>
alcohol dehydrogenase; monooxygenase; amine dehydrogenase

>  <activity>
-10.7

>  <molID>
mol000141

>  <name>
emtricitabine

>  <reference>
Prasse et al. (2015)

>  <speciation_state_pH7.4>
neutral

>  <substance_type>
antiviral drug

>  <smiles>
N=c1nc(O)n([C@@H]2CS[C@H](CO)O2)cc1F

>  <inchi>
InChI=1S/C8H10FN3O3S/c9-4-1-12(8(14)11-7(4)10)5-3-16-6(2-13)15-5/h1,5-6,13H,2-3H2,(H2,10,11,14)/t5-,6+/m0/s1

>  <inchikey>
XQSPYNMVSIKCOC-NTSWFWBYSA-N

$$$$
