chlorpropham (CICP)
 OpenBabel07241711303D
CORINA evaluation license 3.49 0066  11.04.2013
 26 26  0  0  0  0  0  0  0  0999 V2000
    4.1436    0.3922    1.5052 C   0  0  0  0  0
    3.7285    0.6019    0.0476 C   0  0  0  0  0
    4.9733    0.6034   -0.8420 C   0  0  0  0  0
    2.8418   -0.4723   -0.3625 O   0  0  0  0  0
    1.5224   -0.2817   -0.1732 C   0  0  0  0  0
    1.1228    0.7539    0.3211 O   0  0  0  0  0
    0.6449   -1.2397   -0.5321 N   0  0  0  0  0
   -0.7166   -1.0836   -0.2477 C   0  0  0  0  0
   -1.2976    0.1762   -0.2982 C   0  0  0  0  0
   -2.6427    0.3269   -0.0167 C   0  0  0  0  0
   -3.3709    1.9016   -0.0793 Cl  0  0  0  0  0
   -3.4091   -0.7766    0.3145 C   0  0  0  0  0
   -2.8321   -2.0322    0.3658 C   0  0  0  0  0
   -1.4902   -2.1896    0.0800 C   0  0  0  0  0
    4.8092    1.1986    1.8131 H   0  0  0  0  0
    3.2567    0.3912    2.1390 H   0  0  0  0  0
    4.6605   -0.5625    1.6021 H   0  0  0  0  0
    3.2116    1.5567   -0.0492 H   0  0  0  0  0
    5.4902   -0.3514   -0.7451 H   0  0  0  0  0
    4.6776    0.7528   -1.8804 H   0  0  0  0  0
    5.6389    1.4098   -0.5341 H   0  0  0  0  0
    0.9569   -2.0373   -0.9874 H   0  0  0  0  0
   -0.6994    1.0375   -0.5567 H   0  0  0  0  0
   -4.4598   -0.6569    0.5338 H   0  0  0  0  0
   -3.4327   -2.8916    0.6250 H   0  0  0  0  0
   -1.0406   -3.1708    0.1200 H   0  0  0  0  0
  1  2  1  0  0  0
  1 15  1  0  0  0
  1 16  1  0  0  0
  1 17  1  0  0  0
  2  3  1  0  0  0
  2  4  1  0  0  0
  2 18  1  0  0  0
  3 19  1  0  0  0
  3 20  1  0  0  0
  3 21  1  0  0  0
  4  5  1  0  0  0
  5  6  2  0  0  0
  5  7  1  0  0  0
  7  8  1  0  0  0
  7 22  1  0  0  0
  8  9  2  0  0  0
  8 14  1  0  0  0
  9 10  1  0  0  0
  9 23  1  0  0  0
 10 11  1  0  0  0
 10 12  2  0  0  0
 12 13  1  0  0  0
 12 24  1  0  0  0
 13 14  2  0  0  0
 13 25  1  0  0  0
 14 26  1  0  0  0
M  END
>  <likely_enzyme_classes>
amidohydrolase

>  <activity>
-12.1

>  <molID>
mol000153

>  <name>
chlorpropham (CICP)

>  <reference>
Paris et al. (1981)

>  <speciation_state_pH7.4>
neutral

>  <substance_type>
herbicide

>  <smiles>
CC(C)OC(O)=Nc1cccc(Cl)c1

>  <inchi>
InChI=1S/C10H12ClNO2/c1-7(2)14-10(13)12-9-5-3-4-8(11)6-9/h3-7H,1-2H3,(H,12,13)

>  <inchikey>
CWJSHJJYOPWUGX-UHFFFAOYSA-N

$$$$
