Norfloxacin
 OpenBabel07241711303D
CORINA evaluation license 3.49 0066  11.04.2013
 41 43  0  0  0  0  0  0  0  0999 V2000
    1.0770    3.4834   -1.3097 C   0  0  0  0  0
    1.1375    2.9376    0.1183 C   0  0  0  0  0
    1.5702    1.5383    0.0884 N   0  0  0  0  0
    2.8808    1.2704    0.1596 C   0  0  0  0  0
    3.3693   -0.0198    0.1377 C   0  0  0  0  0
    2.4189   -1.1395    0.0329 C   0  0  0  0  0
    2.8012   -2.2967    0.0101 O   0  0  0  0  0
    0.9875   -0.8032   -0.0427 C   0  0  0  0  0
    0.0168   -1.8025   -0.1443 C   0  0  0  0  0
   -1.3043   -1.4614   -0.2131 C   0  0  0  0  0
   -1.6882   -0.1183   -0.1829 C   0  0  0  0  0
   -0.7365    0.8839   -0.0828 C   0  0  0  0  0
    0.6109    0.5521   -0.0063 C   0  0  0  0  0
   -3.0383    0.2160   -0.2543 N   0  0  0  0  0
   -3.4607    0.9597    0.9408 C   0  0  0  0  0
   -4.9255    1.3762    0.7880 C   0  0  0  0  0
   -5.7551    0.1785    0.5961 N   0  0  0  0  0
   -5.3328   -0.5652   -0.5989 C   0  0  0  0  0
   -3.8680   -0.9817   -0.4461 C   0  0  0  0  0
   -2.2439   -2.4272   -0.3114 F   0  0  0  0  0
    4.8147   -0.2723    0.2170 C   0  0  0  0  0
    5.5907    0.6595    0.3029 O   0  0  0  0  0
    5.2802   -1.5373    0.1946 O   0  0  0  0  0
    2.0649    3.4183   -1.7657 H   0  0  0  0  0
    0.3680    2.8962   -1.8934 H   0  0  0  0  0
    0.7550    4.5245   -1.2875 H   0  0  0  0  0
    1.8465    3.5248    0.7020 H   0  0  0  0  0
    0.1496    3.0027    0.5743 H   0  0  0  0  0
    3.5781    2.0915    0.2365 H   0  0  0  0  0
    0.3098   -2.8417   -0.1686 H   0  0  0  0  0
   -1.0412    1.9198   -0.0607 H   0  0  0  0  0
   -3.3528    0.3256    1.8207 H   0  0  0  0  0
   -2.8399    1.8485    1.0543 H   0  0  0  0  0
   -5.2493    1.9029    1.6857 H   0  0  0  0  0
   -5.0287    2.0324   -0.0762 H   0  0  0  0  0
   -5.7343   -0.4108    1.4149 H   0  0  0  0  0
   -5.9536   -1.4540   -0.7124 H   0  0  0  0  0
   -5.4407    0.0689   -1.4789 H   0  0  0  0  0
   -3.5441   -1.5084   -1.3438 H   0  0  0  0  0
   -3.7647   -1.6379    0.4181 H   0  0  0  0  0
    6.2387   -1.6534    0.2494 H   0  0  0  0  0
  1  2  1  0  0  0
  1 24  1  0  0  0
  1 25  1  0  0  0
  1 26  1  0  0  0
  2  3  1  0  0  0
  2 27  1  0  0  0
  2 28  1  0  0  0
  3  4  1  0  0  0
  3 13  1  0  0  0
  4  5  2  0  0  0
  4 29  1  0  0  0
  5  6  1  0  0  0
  5 21  1  0  0  0
  6  7  2  0  0  0
  6  8  1  0  0  0
  8  9  2  0  0  0
  8 13  1  0  0  0
  9 10  1  0  0  0
  9 30  1  0  0  0
 10 11  2  0  0  0
 10 20  1  0  0  0
 11 12  1  0  0  0
 11 14  1  0  0  0
 12 13  2  0  0  0
 12 31  1  0  0  0
 14 15  1  0  0  0
 14 19  1  0  0  0
 15 16  1  0  0  0
 15 32  1  0  0  0
 15 33  1  0  0  0
 16 17  1  0  0  0
 16 34  1  0  0  0
 16 35  1  0  0  0
 17 18  1  0  0  0
 17 36  1  0  0  0
 18 19  1  0  0  0
 18 37  1  0  0  0
 18 38  1  0  0  0
 19 39  1  0  0  0
 19 40  1  0  0  0
 21 22  2  0  0  0
 21 23  1  0  0  0
 23 41  1  0  0  0
M  END
>  <likely_enzyme_classes>
demethylase; amine dehydrogenase

>  <activity>
-10.7

>  <molID>
mol000196

>  <name>
Norfloxacin

>  <reference>
Baena-Nogueras et al. (2017)

>  <speciation_state_pH7.4>
zwitterionic

>  <substance_type>
antibacterial drug

>  <smiles>
CCn1cc(C(=O)O)c(=O)c2cc(F)c(N3CCNCC3)cc21

>  <inchi>
InChI=1S/C16H18FN3O3/c1-2-19-9-11(16(22)23)15(21)10-7-12(17)14(8-13(10)19)20-5-3-18-4-6-20/h7-9,18H,2-6H2,1H3,(H,22,23)

>  <inchikey>
OGJPXUAPXNRGGI-UHFFFAOYSA-N

$$$$
