1,3-butadiene
 OpenBabel07241711303D
CORINA evaluation license 3.49 0066  11.04.2013
 10  9  0  0  0  0  0  0  0  0999 V2000
    1.8074   -0.1309   -0.0003 C   0  0  0  0  0
    0.6005    0.4248    0.0000 C   0  0  0  0  0
   -0.6005   -0.4248   -0.0002 C   0  0  0  0  0
   -1.8074    0.1309    0.0001 C   0  0  0  0  0
    2.6891    0.4928   -0.0001 H   0  0  0  0  0
    1.9067   -1.2063    0.0038 H   0  0  0  0  0
    0.5012    1.5002    0.0005 H   0  0  0  0  0
   -0.5012   -1.5002   -0.0007 H   0  0  0  0  0
   -1.9067    1.2063    0.0006 H   0  0  0  0  0
   -2.6891   -0.4928   -0.0001 H   0  0  0  0  0
  1  2  2  0  0  0
  1  5  1  0  0  0
  1  6  1  0  0  0
  2  3  1  0  0  0
  2  7  1  0  0  0
  3  4  2  0  0  0
  3  8  1  0  0  0
  4  9  1  0  0  0
  4 10  1  0  0  0
M  END
>  <likely_enzyme_classes>
alkene monooxygenase

>  <activity>
-10.2

>  <molID>
mol000002

>  <name>
1,3-butadiene

>  <reference>
Capel and Larson (1995)

>  <speciation_state_pH7.4>
neutral

>  <substance_type>
chemical substance

>  <smiles>
C=CC=C

>  <inchi>
InChI=1S/C4H6/c1-3-4-2/h3-4H,1-2H2

>  <inchikey>
KAKZBPTYRLMSJV-UHFFFAOYSA-N

$$$$
