trifluoroacetic acid
 OpenBabel07241711303D
CORINA evaluation license 3.49 0066  11.04.2013
  8  7  0  0  0  0  0  0  0  0999 V2000
    1.7251    0.9742    0.0000 O   0  0  0  0  0
    0.9448   -0.1180    0.0000 C   0  0  0  0  0
    1.4449   -1.2178   -0.0000 O   0  0  0  0  0
   -0.5552    0.0277   -0.0000 C   0  0  0  0  0
   -1.1468   -1.2401   -0.0000 F   0  0  0  0  0
   -0.9556    0.7291    1.1423 F   0  0  0  0  0
   -0.9556    0.7292   -1.1423 F   0  0  0  0  0
    2.6814    0.8305    0.0000 H   0  0  0  0  0
  1  2  1  0  0  0
  1  8  1  0  0  0
  2  3  2  0  0  0
  2  4  1  0  0  0
  4  5  1  0  0  0
  4  6  1  0  0  0
  4  7  1  0  0  0
M  END
>  <likely_enzyme_classes>
dehalogenase

>  <activity>
-12.6

>  <molID>
mol000121

>  <name>
trifluoroacetic acid

>  <reference>
Ellis et al. (2001)

>  <speciation_state_pH7.4>
anionic

>  <substance_type>
chemical substance

>  <smiles>
O=C(O)C(F)(F)F

>  <inchi>
InChI=1S/C2HF3O2/c3-2(4,5)1(6)7/h(H,6,7)

>  <inchikey>
DTQVDTLACAAQTR-UHFFFAOYSA-N

$$$$
