ethanol
 OpenBabel07241711303D
CORINA evaluation license 3.49 0066  11.04.2013
  9  8  0  0  0  0  0  0  0  0999 V2000
    1.2854   -0.2499   -0.0000 C   0  0  0  0  0
   -0.0072    0.5687   -0.0000 C   0  0  0  0  0
   -1.1304   -0.3147    0.0000 O   0  0  0  0  0
    1.3175   -0.8784    0.8900 H   0  0  0  0  0
    1.3175   -0.8784   -0.8900 H   0  0  0  0  0
    2.1422    0.4239   -0.0000 H   0  0  0  0  0
   -0.0392    1.1972    0.8900 H   0  0  0  0  0
   -0.0392    1.1972   -0.8900 H   0  0  0  0  0
   -1.9857    0.1365    0.0000 H   0  0  0  0  0
  1  2  1  0  0  0
  1  4  1  0  0  0
  1  5  1  0  0  0
  1  6  1  0  0  0
  2  3  1  0  0  0
  2  7  1  0  0  0
  2  8  1  0  0  0
  3  9  1  0  0  0
M  END
>  <likely_enzyme_classes>
alcohol dehydrogenase

>  <activity>
-9.8

>  <molID>
mol000129

>  <name>
ethanol

>  <reference>
Mackay handbook of physical-chemical properties

>  <speciation_state_pH7.4>
neutral

>  <substance_type>
chemical substance

>  <smiles>
CCO

>  <inchi>
InChI=1S/C2H6O/c1-2-3/h3H,2H2,1H3

>  <inchikey>
LFQSCWFLJHTTHZ-UHFFFAOYSA-N

$$$$
