Triclosan
 OpenBabel07241711303D
CORINA evaluation license 3.49 0066  11.04.2013
 24 25  0  0  0  0  0  0  0  0999 V2000
    3.2779    0.0000    1.3645 C   0  0  0  0  0
    2.0162    0.5625    1.4121 C   0  0  0  0  0
    1.3090    0.7785    0.2399 C   0  0  0  0  0
    1.8716    0.4280   -0.9838 C   0  0  0  0  0
    3.1368   -0.1355   -1.0254 C   0  0  0  0  0
    3.8377   -0.3486    0.1481 C   0  0  0  0  0
    5.4227   -1.0547    0.0945 Cl  0  0  0  0  0
    1.1810    0.6377   -2.1363 O   0  0  0  0  0
    0.0674    1.3314    0.2855 O   0  0  0  0  0
   -1.0048    0.4996    0.2080 C   0  0  0  0  0
   -2.2875    1.0246    0.1269 C   0  0  0  0  0
   -3.3763    0.1764    0.0477 C   0  0  0  0  0
   -3.1878   -1.1942    0.0492 C   0  0  0  0  0
   -1.9099   -1.7190    0.1304 C   0  0  0  0  0
   -0.8186   -0.8751    0.2040 C   0  0  0  0  0
   -4.5566   -2.2574   -0.0504 Cl  0  0  0  0  0
   -2.5240    2.7444    0.1256 Cl  0  0  0  0  0
    3.8298   -0.1636    2.2784 H   0  0  0  0  0
    1.5813    0.8334    2.3628 H   0  0  0  0  0
    3.5754   -0.4087   -1.9737 H   0  0  0  0  0
    1.3375    1.5040   -2.5365 H   0  0  0  0  0
   -4.3745    0.5839   -0.0151 H   0  0  0  0  0
   -1.7653   -2.7892    0.1321 H   0  0  0  0  0
    0.1784   -1.2855    0.2669 H   0  0  0  0  0
  1  2  2  0  0  0
  1  6  1  0  0  0
  1 18  1  0  0  0
  2  3  1  0  0  0
  2 19  1  0  0  0
  3  4  2  0  0  0
  3  9  1  0  0  0
  4  5  1  0  0  0
  4  8  1  0  0  0
  5  6  2  0  0  0
  5 20  1  0  0  0
  6  7  1  0  0  0
  8 21  1  0  0  0
  9 10  1  0  0  0
 10 11  2  0  0  0
 10 15  1  0  0  0
 11 12  1  0  0  0
 11 17  1  0  0  0
 12 13  2  0  0  0
 12 22  1  0  0  0
 13 14  1  0  0  0
 13 16  1  0  0  0
 14 15  2  0  0  0
 14 23  1  0  0  0
 15 24  1  0  0  0
M  END
>  <likely_enzyme_classes>
dioxygenase

>  <activity>
-10.9

>  <molID>
mol000184

>  <name>
Triclosan

>  <reference>
Baena-Nogueras et al. (2017)

>  <speciation_state_pH7.4>
neutral

>  <substance_type>
Personal care product

>  <smiles>
Oc1cc(Cl)ccc1Oc1ccc(Cl)cc1Cl

>  <inchi>
InChI=1S/C12H7Cl3O2/c13-7-1-3-11(9(15)5-7)17-12-4-2-8(14)6-10(12)16/h1-6,16H

>  <inchikey>
XEFQLINVKFYRCS-UHFFFAOYSA-N

$$$$
