2-methylpyridin
 OpenBabel07241711303D
CORINA evaluation license 3.49 0066  11.04.2013
 14 14  0  0  0  0  0  0  0  0999 V2000
    2.4075   -0.0016    0.0011 C   0  0  0  0  0
    0.9005   -0.0002    0.0009 C   0  0  0  0  0
    0.2188    1.2018   -0.0004 C   0  0  0  0  0
   -1.1679    1.1922   -0.0006 C   0  0  0  0  0
   -1.8192   -0.0316    0.0006 C   0  0  0  0  0
   -1.0701   -1.1933    0.0019 C   0  0  0  0  0
    0.2476   -1.1460   -0.0034 N   0  0  0  0  0
    2.7707   -0.0009    1.0288 H   0  0  0  0  0
    2.7700   -0.8925   -0.5118 H   0  0  0  0  0
    2.7718    0.8874   -0.5137 H   0  0  0  0  0
    0.7591    2.1369   -0.0010 H   0  0  0  0  0
   -1.7271    2.1161   -0.0013 H   0  0  0  0  0
   -2.8982   -0.0768    0.0009 H   0  0  0  0  0
   -1.5699   -2.1506    0.0032 H   0  0  0  0  0
  1  2  1  0  0  0
  1  8  1  0  0  0
  1  9  1  0  0  0
  1 10  1  0  0  0
  2  3  2  0  0  0
  2  7  1  0  0  0
  3  4  1  0  0  0
  3 11  1  0  0  0
  4  5  2  0  0  0
  4 12  1  0  0  0
  5  6  1  0  0  0
  5 13  1  0  0  0
  6  7  2  0  0  0
  6 14  1  0  0  0
M  END
>  <likely_enzyme_classes>
dioxygenase; monooxygenase

>  <activity>
-9.8

>  <molID>
mol000032

>  <name>
2-methylpyridin

>  <reference>
Nedelcheva et al. 2012, poster; Pubchem

>  <speciation_state_pH7.4>
neutral

>  <substance_type>
chemical substance

>  <smiles>
Cc1ccccn1

>  <inchi>
InChI=1S/C6H7N/c1-6-4-2-3-5-7-6/h2-5H,1H3

>  <inchikey>
BSKHPKMHTQYZBB-UHFFFAOYSA-N

$$$$
