4-chloroaniline (p-chloroaniline)
 OpenBabel07241711303D
CORINA evaluation license 3.49 0066  11.04.2013
 14 14  0  0  0  0  0  0  0  0999 V2000
    3.2922    0.0000    0.0009 N   0  0  0  0  0
    1.8947   -0.0000    0.0008 C   0  0  0  0  0
    1.1990    1.2021   -0.0005 C   0  0  0  0  0
   -0.1821    1.1992   -0.0006 C   0  0  0  0  0
   -0.8727    0.0000    0.0007 C   0  0  0  0  0
   -2.6087   -0.0000    0.0000 Cl  0  0  0  0  0
   -0.1821   -1.1992    0.0020 C   0  0  0  0  0
    1.1990   -1.2021   -0.0037 C   0  0  0  0  0
    3.7772    0.8400    0.0001 H   0  0  0  0  0
    3.7771   -0.8400    0.0059 H   0  0  0  0  0
    1.7374    2.1383   -0.0011 H   0  0  0  0  0
   -0.7236    2.1336   -0.0012 H   0  0  0  0  0
   -0.7236   -2.1336    0.0033 H   0  0  0  0  0
    1.7375   -2.1383   -0.0030 H   0  0  0  0  0
  1  2  1  0  0  0
  1  9  1  0  0  0
  1 10  1  0  0  0
  2  3  2  0  0  0
  2  8  1  0  0  0
  3  4  1  0  0  0
  3 11  1  0  0  0
  4  5  2  0  0  0
  4 12  1  0  0  0
  5  6  1  0  0  0
  5  7  1  0  0  0
  7  8  2  0  0  0
  7 13  1  0  0  0
  8 14  1  0  0  0
M  END
>  <likely_enzyme_classes>
dioxygenase

>  <activity>
-11.6

>  <molID>
mol000082

>  <name>
4-chloroaniline (p-chloroaniline)

>  <reference>
Torang (2003)

>  <speciation_state_pH7.4>
neutral

>  <substance_type>
chemical substance

>  <smiles>
Nc1ccc(Cl)cc1

>  <inchi>
InChI=1S/C6H6ClN/c7-5-1-3-6(8)4-2-5/h1-4H,8H2

>  <inchikey>
QSNSCYSYFYORTR-UHFFFAOYSA-N

$$$$
