lindane
 OpenBabel07241711303D
CORINA evaluation license 3.49 0066  11.04.2013
 18 18  0  0  0  0  0  0  0  0999 V2000
    1.2560   -0.7094   -1.1940 Cl  0  0  0  0  0
    1.2560   -0.7094    0.6090 C   0  0  0  0  0
    1.2424    0.7331    1.1190 C   0  0  0  0  0
    2.7064    1.5969    0.5180 Cl  0  0  0  0  0
   -0.0137    1.4424    0.6090 C   0  0  0  0  0
   -0.0137    1.4424   -1.1940 Cl  0  0  0  0  0
   -1.2560    0.7094    1.1190 C   0  0  0  0  0
   -2.7361    1.5453    0.5180 Cl  0  0  0  0  0
   -1.2424   -0.7331    0.6090 C   0  0  0  0  0
   -1.2424   -0.7331   -1.1940 Cl  0  0  0  0  0
    0.0137   -1.4424    1.1190 C   0  0  0  0  0
    0.0298   -3.1422    0.5180 Cl  0  0  0  0  0
    2.1508   -1.2148    0.9724 H   0  0  0  0  0
    1.2424    0.7331    2.2090 H   0  0  0  0  0
   -0.0234    2.4700    0.9724 H   0  0  0  0  0
   -1.2560    0.7094    2.2090 H   0  0  0  0  0
   -2.1274   -1.2553    0.9724 H   0  0  0  0  0
    0.0137   -1.4424    2.2090 H   0  0  0  0  0
  1  2  1  0  0  0
  2  3  1  0  0  0
  2 11  1  0  0  0
  2 13  1  0  0  0
  3  4  1  0  0  0
  3  5  1  0  0  0
  3 14  1  0  0  0
  5  6  1  0  0  0
  5  7  1  0  0  0
  5 15  1  0  0  0
  7  8  1  0  0  0
  7  9  1  0  0  0
  7 16  1  0  0  0
  9 10  1  0  0  0
  9 11  1  0  0  0
  9 17  1  0  0  0
 11 12  1  0  0  0
 11 18  1  0  0  0
M  END
>  <likely_enzyme_classes>
dehalogenase

>  <activity>
-10.4

>  <molID>
mol000109

>  <name>
lindane

>  <reference>
Capel and Larson (1995); Pubchem

>  <speciation_state_pH7.4>
neutral

>  <substance_type>
chemical substance

>  <smiles>
ClC1C(Cl)C(Cl)C(Cl)C(Cl)C1Cl

>  <inchi>
InChI=1S/C6H6Cl6/c7-1-2(8)4(10)6(12)5(11)3(1)9/h1-6H

>  <inchikey>
JLYXXMFPNIAWKQ-UHFFFAOYSA-N

$$$$
