Mefenamic acid
 OpenBabel07241711303D
CORINA evaluation license 3.49 0066  11.04.2013
 33 34  0  0  0  0  0  0  0  0999 V2000
    4.7689   -0.0879   -0.2132 C   0  0  0  0  0
    3.3534   -0.0749    0.3037 C   0  0  0  0  0
    2.3096   -0.4098   -0.5357 C   0  0  0  0  0
    1.0049   -0.3980   -0.0582 C   0  0  0  0  0
    0.7554   -0.0490    1.2630 C   0  0  0  0  0
    1.8042    0.2849    2.0972 C   0  0  0  0  0
    3.1019    0.2670    1.6201 C   0  0  0  0  0
   -0.0539   -0.7359   -0.9051 N   0  0  0  0  0
   -1.3480   -0.8055   -0.4053 C   0  0  0  0  0
   -1.9259   -2.0390   -0.1324 C   0  0  0  0  0
   -3.2117   -2.1054    0.3640 C   0  0  0  0  0
   -3.9361   -0.9466    0.5943 C   0  0  0  0  0
   -3.3805    0.2861    0.3300 C   0  0  0  0  0
   -2.0773    0.3711   -0.1676 C   0  0  0  0  0
   -1.4767    1.6857   -0.4520 C   0  0  0  0  0
   -0.3904    1.7533   -0.9925 O   0  0  0  0  0
   -2.1320    2.8135   -0.1128 O   0  0  0  0  0
    2.5851   -0.7873   -1.9685 C   0  0  0  0  0
    5.0177    0.8940   -0.6159 H   0  0  0  0  0
    5.4511   -0.3299    0.6017 H   0  0  0  0  0
    4.8617   -0.8371   -0.9994 H   0  0  0  0  0
   -0.2576   -0.0385    1.6373 H   0  0  0  0  0
    1.6109    0.5567    3.1245 H   0  0  0  0  0
    3.9203    0.5282    2.2747 H   0  0  0  0  0
    0.1148   -0.9220   -1.8420 H   0  0  0  0  0
   -1.3684   -2.9469   -0.3093 H   0  0  0  0  0
   -3.6566   -3.0668    0.5742 H   0  0  0  0  0
   -4.9418   -1.0102    0.9827 H   0  0  0  0  0
   -3.9500    1.1858    0.5107 H   0  0  0  0  0
   -1.6979    3.6525   -0.3196 H   0  0  0  0  0
    2.7445   -1.8634   -2.0365 H   0  0  0  0  0
    1.7337   -0.5062   -2.5884 H   0  0  0  0  0
    3.4763   -0.2652   -2.3168 H   0  0  0  0  0
  1  2  1  0  0  0
  1 19  1  0  0  0
  1 20  1  0  0  0
  1 21  1  0  0  0
  2  3  2  0  0  0
  2  7  1  0  0  0
  3  4  1  0  0  0
  3 18  1  0  0  0
  4  5  2  0  0  0
  4  8  1  0  0  0
  5  6  1  0  0  0
  5 22  1  0  0  0
  6  7  2  0  0  0
  6 23  1  0  0  0
  7 24  1  0  0  0
  8  9  1  0  0  0
  8 25  1  0  0  0
  9 10  2  0  0  0
  9 14  1  0  0  0
 10 11  1  0  0  0
 10 26  1  0  0  0
 11 12  2  0  0  0
 11 27  1  0  0  0
 12 13  1  0  0  0
 12 28  1  0  0  0
 13 14  2  0  0  0
 13 29  1  0  0  0
 14 15  1  0  0  0
 15 16  2  0  0  0
 15 17  1  0  0  0
 17 30  1  0  0  0
 18 31  1  0  0  0
 18 32  1  0  0  0
 18 33  1  0  0  0
M  END
>  <likely_enzyme_classes>
dioxygenase

>  <activity>
-11.4

>  <molID>
mol000178

>  <name>
Mefenamic acid

>  <reference>
Baena-Nogueras et al. (2017)

>  <speciation_state_pH7.4>
anionic

>  <substance_type>
nonsteroidal anti-inflammatory drug

>  <smiles>
Cc1cccc(Nc2ccccc2C(=O)O)c1C

>  <inchi>
InChI=1S/C15H15NO2/c1-10-6-5-9-13(11(10)2)16-14-8-4-3-7-12(14)15(17)18/h3-9,16H,1-2H3,(H,17,18)

>  <inchikey>
HYYBABOKPJLUIN-UHFFFAOYSA-N

$$$$
