ethyl acetate
 OpenBabel07241711303D
CORINA evaluation license 3.49 0066  11.04.2013
 14 13  0  0  0  0  0  0  0  0999 V2000
    2.6730    0.3517   -0.0001 C   0  0  0  0  0
    1.3588   -0.4318    0.0001 C   0  0  0  0  0
    0.2420    0.4962   -0.0002 O   0  0  0  0  0
   -0.9910   -0.0342    0.0000 C   0  0  0  0  0
   -2.1989    0.8669   -0.0003 C   0  0  0  0  0
   -1.1325   -1.2342    0.0004 O   0  0  0  0  0
    2.7219    0.9794    0.8897 H   0  0  0  0  0
    3.5113   -0.3449    0.0001 H   0  0  0  0  0
    2.7219    0.9788   -0.8903 H   0  0  0  0  0
    1.3099   -1.0595   -0.8896 H   0  0  0  0  0
    1.3099   -1.0589    0.8903 H   0  0  0  0  0
   -2.4901    1.0838   -1.0280 H   0  0  0  0  0
   -3.0223    0.3710    0.5137 H   0  0  0  0  0
   -1.9580    1.7977    0.5132 H   0  0  0  0  0
  1  2  1  0  0  0
  1  7  1  0  0  0
  1  8  1  0  0  0
  1  9  1  0  0  0
  2  3  1  0  0  0
  2 10  1  0  0  0
  2 11  1  0  0  0
  3  4  1  0  0  0
  4  5  1  0  0  0
  4  6  2  0  0  0
  5 12  1  0  0  0
  5 13  1  0  0  0
  5 14  1  0  0  0
M  END
>  <likely_enzyme_classes>
esterase

>  <activity>
-9.6

>  <molID>
mol000089

>  <name>
ethyl acetate

>  <reference>
Mackay handbook of physical-chemical properties; Capel and Larson (1995)

>  <speciation_state_pH7.4>
neutral

>  <substance_type>
chemical substance

>  <smiles>
CCOC(C)=O

>  <inchi>
InChI=1S/C4H8O2/c1-3-6-4(2)5/h3H2,1-2H3

>  <inchikey>
XEKOWRVHYACXOJ-UHFFFAOYSA-N

$$$$
