acrylonitrile
 OpenBabel07241711303D
CORINA evaluation license 3.49 0066  11.04.2013
  7  6  0  0  0  0  0  0  0  0999 V2000
    1.6516   -0.3933   -0.0004 C   0  0  0  0  0
    0.6855    0.5216    0.0002 C   0  0  0  0  0
   -0.6871    0.1135    0.0000 C   0  0  0  0  0
   -1.7760   -0.2103   -0.0001 N   0  0  0  0  0
    2.6868   -0.0855   -0.0003 H   0  0  0  0  0
    1.4005   -1.4437    0.0034 H   0  0  0  0  0
    0.9366    1.5720    0.0008 H   0  0  0  0  0
  1  2  2  0  0  0
  1  5  1  0  0  0
  1  6  1  0  0  0
  2  3  1  0  0  0
  2  7  1  0  0  0
  3  4  3  0  0  0
M  END
>  <likely_enzyme_classes>
nitril hydrolase

>  <activity>
-9.5

>  <molID>
mol000159

>  <name>
acrylonitrile

>  <reference>
Capel and Larson (1995)

>  <speciation_state_pH7.4>
neutral

>  <substance_type>
chemical substance

>  <smiles>
C=CC#N

>  <inchi>
InChI=1S/C3H3N/c1-2-3-4/h2H,1H2

>  <inchikey>
NLHHRLWOUZZQLW-UHFFFAOYSA-N

$$$$
