2-nitrophenol
 OpenBabel07241711303D
CORINA evaluation license 3.49 0066  11.04.2013
 15 15  0  0  0  0  0  0  0  0999 V2000
   -0.2023    2.0955    0.0256 O   0  0  0  0  0
    0.5108    0.9387    0.0138 C   0  0  0  0  0
    1.8974    0.9774    0.0151 C   0  0  0  0  0
    2.6202   -0.2001    0.0036 C   0  0  0  0  0
    1.9626   -1.4160   -0.0096 C   0  0  0  0  0
    0.5803   -1.4573   -0.0109 C   0  0  0  0  0
   -0.1468   -0.2831    0.0064 C   0  0  0  0  0
   -1.6262   -0.3279    0.0055 N   0  0  0  0  0
   -2.2029   -1.4006   -0.0104 O   0  0  0  0  0
   -2.2668    0.7079    0.0207 O   0  0  0  0  0
   -0.4082    2.4396   -0.8543 H   0  0  0  0  0
    2.4116    1.9271    0.0246 H   0  0  0  0  0
    3.6998   -0.1705    0.0045 H   0  0  0  0  0
    2.5294   -2.3353   -0.0193 H   0  0  0  0  0
    0.0689   -2.4085   -0.0212 H   0  0  0  0  0
  1  2  1  0  0  0
  1 11  1  0  0  0
  2  3  2  0  0  0
  2  7  1  0  0  0
  3  4  1  0  0  0
  3 12  1  0  0  0
  4  5  2  0  0  0
  4 13  1  0  0  0
  5  6  1  0  0  0
  5 14  1  0  0  0
  6  7  2  0  0  0
  6 15  1  0  0  0
  7  8  1  0  0  0
  8  9  1  0  0  0
  8 10  2  0  0  0
M  CHG  2   8   1   9  -1
M  END
>  <likely_enzyme_classes>
nitroreductase

>  <activity>
-11.1

>  <molID>
mol000166

>  <name>
2-nitrophenol

>  <reference>
Mackay handbook of physical-chemical properties

>  <speciation_state_pH7.4>
anionic

>  <substance_type>
chemical substance

>  <smiles>
O=[N+]([O-])c1ccccc1O

>  <inchi>
InChI=1S/C6H5NO3/c8-6-4-2-1-3-5(6)7(9)10/h1-4,8H

>  <inchikey>
IQUPABOKLQSFBK-UHFFFAOYSA-N

$$$$
