sertraline
 OpenBabel07241711303D
CORINA evaluation license 3.49 0066  11.04.2013
 37 39  0  0  0  0  0  0  0  0999 V2000
    5.0513   -1.1291    1.5293 C   0  0  0  0  0
    3.8423   -1.5851    0.8304 N   0  0  0  0  0
    3.7024   -0.9166   -0.4702 C   0  0  0  0  0
    2.8709   -1.7962   -1.4016 C   0  0  0  0  0
    1.4271   -1.8171   -0.8858 C   0  0  0  0  0
    0.8136   -0.4373   -1.1155 C   0  0  0  0  0
   -0.5260   -0.3686   -0.4286 C   0  0  0  0  0
   -1.6684   -0.1217   -1.1661 C   0  0  0  0  0
   -2.8984   -0.0589   -0.5360 C   0  0  0  0  0
   -4.3339    0.2506   -1.4620 Cl  0  0  0  0  0
   -2.9840   -0.2435    0.8334 C   0  0  0  0  0
   -4.5268   -0.1656    1.6256 Cl  0  0  0  0  0
   -1.8394   -0.4906    1.5702 C   0  0  0  0  0
   -0.6121   -0.5582    0.9383 C   0  0  0  0  0
    1.7106    0.6397   -0.5637 C   0  0  0  0  0
    1.1574    1.8953   -0.3498 C   0  0  0  0  0
    1.9281    2.9254    0.1489 C   0  0  0  0  0
    3.2619    2.7068    0.4382 C   0  0  0  0  0
    3.8128    1.4593    0.2285 C   0  0  0  0  0
    3.0386    0.4210   -0.2723 C   0  0  0  0  0
    5.1305   -1.6397    2.4891 H   0  0  0  0  0
    5.9286   -1.3561    0.9235 H   0  0  0  0  0
    4.9919   -0.0533    1.6939 H   0  0  0  0  0
    3.8434   -2.5884    0.7231 H   0  0  0  0  0
    4.6905   -0.7661   -0.9050 H   0  0  0  0  0
    2.8941   -1.3864   -2.4114 H   0  0  0  0  0
    3.2736   -2.8091   -1.4067 H   0  0  0  0  0
    0.8541   -2.5687   -1.4288 H   0  0  0  0  0
    1.4211   -2.0489    0.1793 H   0  0  0  0  0
    0.6776   -0.2780   -2.1851 H   0  0  0  0  0
   -1.6009    0.0226   -2.2343 H   0  0  0  0  0
   -1.9054   -0.6343    2.6385 H   0  0  0  0  0
    0.2812   -0.7514    1.5137 H   0  0  0  0  0
    0.1154    2.0671   -0.5761 H   0  0  0  0  0
    1.4908    3.8993    0.3123 H   0  0  0  0  0
    3.8708    3.5097    0.8267 H   0  0  0  0  0
    4.8548    1.2889    0.4558 H   0  0  0  0  0
  1  2  1  0  0  0
  1 21  1  0  0  0
  1 22  1  0  0  0
  1 23  1  0  0  0
  2  3  1  0  0  0
  2 24  1  0  0  0
  3  4  1  0  0  0
  3 20  1  0  0  0
  3 25  1  0  0  0
  4  5  1  0  0  0
  4 26  1  0  0  0
  4 27  1  0  0  0
  5  6  1  0  0  0
  5 28  1  0  0  0
  5 29  1  0  0  0
  6  7  1  0  0  0
  6 15  1  0  0  0
  6 30  1  0  0  0
  7  8  2  0  0  0
  7 14  1  0  0  0
  8  9  1  0  0  0
  8 31  1  0  0  0
  9 10  1  0  0  0
  9 11  2  0  0  0
 11 12  1  0  0  0
 11 13  1  0  0  0
 13 14  2  0  0  0
 13 32  1  0  0  0
 14 33  1  0  0  0
 15 16  2  0  0  0
 15 20  1  0  0  0
 16 17  1  0  0  0
 16 34  1  0  0  0
 17 18  2  0  0  0
 17 35  1  0  0  0
 18 19  1  0  0  0
 18 36  1  0  0  0
 19 20  2  0  0  0
 19 37  1  0  0  0
M  END
>  <likely_enzyme_classes>
monooxygenase

>  <activity>
-11.9

>  <molID>
mol000042

>  <name>
sertraline

>  <reference>
Lam et al. (2004)

>  <speciation_state_pH7.4>
cationic

>  <substance_type>
serotonin inhibitor drug

>  <smiles>
CN[C@H]1CC[C@@H](c2ccc(Cl)c(Cl)c2)c2ccccc21

>  <inchi>
InChI=1S/C17H17Cl2N/c1-20-17-9-7-12(13-4-2-3-5-14(13)17)11-6-8-15(18)16(19)10-11/h2-6,8,10,12,17,20H,7,9H2,1H3/t12-,17-/m0/s1

>  <inchikey>
VGKDLMBJGBXTGI-SJCJKPOMSA-N

$$$$
